data_Molecule from CHK

_cell_length_a		150.235785
_cell_length_b		152.259188
_cell_length_c		64.216957
_cell_angle_alpha	97.502420
_cell_angle_beta	85.698671
_cell_angle_gamma	121.090179
_symmetry_space_group_name_H-M	'P 1'
_symmetry_Int_Tables_number		1

loop_
	_symmetry_equiv_pos_as_xyz
	x,y,z

loop_
	_atom_site_label
	_atom_site_type_symbol
	_atom_site_fract_x
	_atom_site_fract_y
	_atom_site_fract_z
	C0	C	0.941967	0.050680	-0.029192
	C1	C	0.949216	0.055789	-0.013013
	C2	C	0.957188	0.066107	-0.013526
	C3	C	0.957994	0.071365	-0.031069
	C4	C	0.950683	0.066046	-0.047752
	C5	C	0.942803	0.055727	-0.046605
	H6	H	0.948536	0.051638	0.000087
	H7	H	0.937447	0.051553	-0.059523
	C8	C	0.966096	0.081832	-0.031987
	C9	C	0.973400	0.087145	-0.015288
	C10	C	0.981317	0.097440	-0.016491
	C11	C	0.982183	0.102476	-0.033935
	C12	C	0.974919	0.097400	-0.050091
	C13	C	0.966897	0.087102	-0.049512
	H14	H	0.986712	0.101612	-0.003627
	H15	H	0.975584	0.101581	-0.063122
	C16	C	0.951711	0.071549	-0.065245
	C17	C	0.959394	0.081562	-0.066045
	H18	H	0.946161	0.067512	-0.077901
	H19	H	0.960032	0.085594	-0.079315
	C20	C	0.964663	0.071652	0.003053
	C21	C	0.972347	0.081662	0.002253
	H22	H	0.964001	0.067625	0.016349
	H23	H	0.977886	0.085705	0.014926
	C24	C	0.933783	0.039498	-0.028197
	O25	O	0.935698	0.033362	-0.022494
	N26	N	0.923766	0.036894	-0.033294
	H27	H	0.922408	0.042537	-0.035940
	C28	C	0.990554	0.113593	-0.034919
	O29	O	0.988760	0.120041	-0.039269
	N30	N	1.000541	0.115739	-0.030965
	H31	H	1.001640	0.109826	-0.029195
	C32	C	0.037744	0.156577	-0.025227
	C33	C	0.046830	0.156149	-0.022455
	O34	O	0.056201	0.164699	-0.021033
	C35	C	0.046729	0.146816	-0.021323
	C36	C	0.036780	0.137610	-0.022465
	O37	O	0.035655	0.128612	-0.019173
	C38	C	0.027405	0.137247	-0.026601
	C39	C	0.028312	0.146901	-0.028450
	O40	O	0.020181	0.147391	-0.033830
	H41	H	0.042891	0.130143	-0.016053
	H42	H	0.014182	0.139962	-0.035940
	H43	H	0.055019	0.170606	-0.022348
	N44	N	0.044855	0.175104	-0.021793
	C45	C	0.037044	0.165797	-0.024913
	H46	H	0.029364	0.164551	-0.027393
	N47	N	0.057873	0.139764	-0.019451
	C48	C	0.056756	0.147615	-0.019620
	H49	H	0.063580	0.155353	-0.018637
	N50	N	0.008752	0.125647	-0.030326
	C51	C	0.017898	0.127151	-0.027675
	H52	H	0.018771	0.120591	-0.026180
	C53	C	0.878268	0.003767	-0.045465
	C54	C	0.888082	0.013084	-0.045938
	O55	O	0.888975	0.021362	-0.053029
	C56	C	0.897495	0.014378	-0.038849
	C57	C	0.896823	0.005453	-0.032345
	O58	O	0.905309	0.005502	-0.027324
	C59	C	0.887317	-0.004080	-0.030938
	C60	C	0.878173	-0.004370	-0.036559
	O61	O	0.868758	-0.012401	-0.033141
	H62	H	0.911399	0.012677	-0.029325
	H63	H	0.869999	-0.017344	-0.026308
	H64	H	0.881695	0.019261	-0.057322
	N65	N	0.867187	0.008068	-0.062102
	C66	C	0.868374	0.001619	-0.053152
	H67	H	0.861707	-0.006040	-0.051407
	N68	N	0.915744	0.026970	-0.032575
	C69	C	0.906734	0.024642	-0.038822
	H70	H	0.905789	0.030540	-0.044518
	N71	N	0.880072	-0.021906	-0.024581
	C72	C	0.887959	-0.012659	-0.025000
	H73	H	0.895633	-0.010998	-0.020992
	C74	C	0.080422	0.136302	-0.015532
	C75	C	0.083398	0.132418	-0.000602
	C76	C	0.093700	0.134734	0.000354
	C77	C	0.101165	0.140973	-0.014455
	C78	C	0.098026	0.144741	-0.029958
	C79	C	0.087648	0.142275	-0.030329
	H80	H	0.077595	0.127617	0.010386
	H81	H	0.085141	0.144838	-0.042441
	C82	C	0.111668	0.143374	-0.013835
	C83	C	0.114815	0.139637	0.001718
	C84	C	0.125196	0.142120	0.002117
	C85	C	0.132421	0.148085	-0.012691
	C86	C	0.129441	0.151945	-0.027662
	C87	C	0.119140	0.149637	-0.028605
	H88	H	0.127705	0.139575	0.014260
	H89	H	0.135261	0.156804	-0.038554
	C90	C	0.105719	0.150988	-0.044709
	C91	C	0.115758	0.153338	-0.044025
	H92	H	0.103329	0.153832	-0.056485
	H93	H	0.121459	0.158081	-0.055215
	C94	C	0.097085	0.131045	0.015792
	C95	C	0.107126	0.133405	0.016492
	H96	H	0.091387	0.126315	0.027003
	H97	H	0.109517	0.130569	0.028284
	C98	C	0.069211	0.133365	-0.016331
	O99	O	0.062078	0.124653	-0.014627
	N100	N	0.067720	0.141592	-0.017826
	H101	H	0.073966	0.148883	-0.017252
	C102	C	0.143630	0.151009	-0.011904
	O103	O	0.150770	0.159759	-0.013174
	N104	N	0.145096	0.142804	-0.010005
	H105	H	0.138859	0.135498	-0.011005
	C106	C	0.048051	0.201159	-0.018173
	C107	C	0.053341	0.209236	-0.030786
	C108	C	0.050408	0.216608	-0.030991
	C109	C	0.041814	0.215728	-0.018305
	C110	C	0.036442	0.207455	-0.005450
	C111	C	0.039642	0.200261	-0.005650
	H112	H	0.059879	0.209799	-0.040219
	H113	H	0.035725	0.194069	0.004334
	C114	C	0.038649	0.223090	-0.018395
	C115	C	0.044082	0.231420	-0.031096
	C116	C	0.040831	0.238569	-0.030963
	C117	C	0.032291	0.237548	-0.018818
	C118	C	0.027089	0.229557	-0.005935
	C119	C	0.030102	0.222253	-0.005591
	H120	H	0.044942	0.245027	-0.040269
	H121	H	0.020812	0.229153	0.004189
	C122	C	0.027885	0.206834	0.007349
	C123	C	0.024878	0.213871	0.007295
	H124	H	0.023866	0.200591	0.017203
	H125	H	0.018440	0.213290	0.017112
	C126	C	0.055739	0.225087	-0.043610
	C127	C	0.052747	0.232137	-0.043627
	H128	H	0.062298	0.225763	-0.053120
	H129	H	0.056882	0.238496	-0.053172
	C130	C	0.051233	0.193217	-0.019012
	O131	O	0.060227	0.195550	-0.017803
	N132	N	0.043012	0.183007	-0.021813
	H133	H	0.035794	0.181552	-0.024772
	C134	C	0.029172	0.245500	-0.018722
	O135	O	0.035432	0.254687	-0.017234
	N136	N	0.018568	0.241349	-0.021831
	H137	H	0.013878	0.233580	-0.024833
	C138	C	0.876456	0.953294	-0.012015
	C139	C	0.871206	0.947006	0.004014
	C140	C	0.873632	0.939730	0.008664
	C141	C	0.881428	0.938626	-0.003482
	C142	C	0.886589	0.944907	-0.020171
	C143	C	0.883961	0.952122	-0.024257
	H144	H	0.865251	0.947902	0.012938
	H145	H	0.887620	0.956694	-0.037282
	C146	C	0.883993	0.931255	0.000940
	C147	C	0.878833	0.924975	0.017632
	C148	C	0.881479	0.917776	0.021749
	C149	C	0.889165	0.916781	0.009832
	C150	C	0.894195	0.922857	-0.006600
	C151	C	0.891778	0.930142	-0.011230
	H152	H	0.877778	0.913162	0.034701
	H153	H	0.900130	0.921941	-0.015567
	C154	C	0.894353	0.943562	-0.032250
	C155	C	0.896827	0.936555	-0.027981
	H156	H	0.898240	0.948307	-0.044955
	H157	H	0.902714	0.935661	-0.037203
	C158	C	0.868527	0.933261	0.025312
	C159	C	0.871015	0.926267	0.029608
	H160	H	0.862604	0.934119	0.034465
	H161	H	0.867091	0.921488	0.042249
	C162	C	0.873425	0.960819	-0.016843
	O163	O	0.864432	0.958556	-0.017633
	N164	N	0.881804	0.970752	-0.018950
	H165	H	0.889125	0.972428	-0.016211
	C166	C	0.891797	0.908841	0.013738
	O167	O	0.900693	0.910833	0.014748
	N168	N	0.883194	0.899024	0.015740
	H169	H	0.875988	0.897575	0.012668
	C170	C	0.844716	0.006609	-0.086608
	C171	C	0.840264	0.012787	-0.084740
	C172	C	0.830075	0.008817	-0.091453
	C173	C	0.824268	-0.001640	-0.100615
	C174	C	0.828963	-0.007828	-0.103029
	C175	C	0.839175	-0.003557	-0.096118
	H176	H	0.844815	0.020724	-0.077843
	H177	H	0.842879	-0.008117	-0.098569
	C178	C	0.813873	-0.005856	-0.107409
	C179	C	0.809198	0.000348	-0.105138
	C180	C	0.798938	-0.003966	-0.111825
	C181	C	0.793207	-0.014307	-0.120257
	C182	C	0.797843	-0.020325	-0.123041
	C183	C	0.808083	-0.016304	-0.116622
	H184	H	0.795458	0.000788	-0.110663
	H185	H	0.793344	-0.028229	-0.130165
	C186	C	0.822972	-0.018298	-0.112585
	C187	C	0.813047	-0.022328	-0.119028
	H188	H	0.826572	-0.022961	-0.114587
	H189	H	0.808646	-0.030226	-0.126211
	C190	C	0.825198	0.014914	-0.089543
	C191	C	0.815283	0.010895	-0.096058
	H192	H	0.829673	0.022878	-0.082764
	H193	H	0.811775	0.015636	-0.094534
	C194	C	0.855760	0.011257	-0.079581
	O195	O	0.862502	0.020002	-0.082313
	N196	N	0.857417	0.004870	-0.068674
	H197	H	0.851231	-0.001895	-0.064730
	C198	C	0.782258	-0.018966	-0.127845
	O199	O	0.779154	-0.024617	-0.144102
	N200	N	0.775830	-0.016764	-0.114094
	H201	H	0.778557	-0.012804	-0.099789
	C202	C	0.165942	0.137513	-0.005033
	C203	C	0.176006	0.146491	-0.005942
	O204	O	0.177159	0.155733	-0.006839
	C205	C	0.185453	0.146435	-0.005729
	C206	C	0.184426	0.136706	-0.004102
	O207	O	0.192759	0.135712	-0.004481
	C208	C	0.174709	0.127436	-0.002110
	C209	C	0.165666	0.128189	-0.002764
	O210	O	0.156169	0.119960	-0.001193
	H211	H	0.199010	0.142845	-0.006068
	H212	H	0.157221	0.113996	0.000344
	H213	H	0.169855	0.154568	-0.006655
	N214	N	0.154946	0.144565	-0.008879
	C215	C	0.155951	0.136837	-0.006407
	H216	H	0.149031	0.129266	-0.005377
	N217	N	0.204254	0.157534	-0.006719
	C218	C	0.195090	0.156317	-0.006908
	H219	H	0.194317	0.162960	-0.008132
	N220	N	0.166996	0.109238	0.001973
	C221	C	0.175100	0.118241	0.000275
	H222	H	0.182799	0.119207	0.000521
	C223	C	-0.017509	0.247883	-0.030395
	C224	C	-0.011416	0.243411	-0.027754
	O225	O	-0.015926	0.233222	-0.027803
	C226	C	-0.000476	0.249271	-0.024267
	C227	C	0.003909	0.260127	-0.019319
	O228	O	0.014041	0.266542	-0.016185
	C229	C	-0.002255	0.264796	-0.017144
	C230	C	-0.012401	0.258740	-0.025649
	O231	O	-0.017345	0.263319	-0.030842
	H232	H	0.017322	0.262069	-0.018366
	H233	H	-0.012323	0.271057	-0.026905
	H234	H	-0.023663	0.230524	-0.029536
	N235	N	-0.033315	0.233009	-0.045416
	C236	C	-0.027971	0.242728	-0.038837
	H237	H	-0.031033	0.247738	-0.040124
	N238	N	0.014630	0.247727	-0.020889
	C239	C	0.004874	0.243541	-0.024879
	H240	H	0.000156	0.235231	-0.028927
	N241	N	-0.003537	0.278340	0.005009
	C242	C	0.001922	0.275196	-0.006690
	H243	H	0.010145	0.280640	-0.009211
	C244	C	0.876758	0.873373	0.026492
	C245	C	0.885746	0.872601	0.027908
	O246	O	0.895271	0.880915	0.027744
	C247	C	0.885363	0.863196	0.029890
	C248	C	0.875317	0.854549	0.033255
	O249	O	0.874083	0.845488	0.036362
	C250	C	0.865990	0.854857	0.033736
	C251	C	0.867020	0.864170	0.028655
	O252	O	0.858674	0.864651	0.024881
	H253	H	0.881345	0.846508	0.035586
	H254	H	0.852449	0.857464	0.026378
	H255	H	0.894257	0.886945	0.026600
	N256	N	0.884640	0.891198	0.019373
	C257	C	0.876470	0.882432	0.022478
	H258	H	0.868810	0.881552	0.022152
	N259	N	0.896232	0.855641	0.029602
	C260	C	0.895255	0.863514	0.028467
	H261	H	0.902144	0.870923	0.025952
	N262	N	0.847654	0.845524	0.042586
	C263	C	0.856468	0.845926	0.040339
	H264	H	0.857059	0.839401	0.043567
	C265	C	0.749200	-0.021894	-0.109975
	C266	C	0.742879	-0.028809	-0.127057
	O267	O	0.746574	-0.032870	-0.142383
	C268	C	0.732339	-0.031645	-0.129267
	C269	C	0.727600	-0.029186	-0.111295
	O270	O	0.717263	-0.033975	-0.109655
	C271	C	0.733306	-0.022235	-0.093803
	C272	C	0.744240	-0.018057	-0.094898
	O273	O	0.750505	-0.009779	-0.081983
	H274	H	0.714624	-0.039034	-0.123076
	H275	H	0.745555	-0.007935	-0.073384
	H276	H	0.754120	-0.030065	-0.138762
	N277	N	0.765696	-0.020727	-0.119287
	C278	C	0.760115	-0.018189	-0.106584
	H279	H	0.763547	-0.012991	-0.092364
	N280	N	0.720054	-0.036424	-0.157589
	C281	C	0.727194	-0.037105	-0.149084
	H282	H	0.729558	-0.042306	-0.157394
	N283	N	0.731810	-0.016663	-0.057271
	C284	C	0.727530	-0.021236	-0.075300
	H285	H	0.719140	-0.025090	-0.077060
	C286	C	0.231167	0.179948	-0.009551
	C287	C	0.230740	0.185834	-0.024044
	C288	C	0.238515	0.196234	-0.024575
	C289	C	0.246850	0.200853	-0.009932
	C290	C	0.247215	0.194794	0.004828
	C291	C	0.239315	0.184414	0.004780
	H292	H	0.224512	0.182208	-0.035385
	H293	H	0.239452	0.179686	0.015862
	C294	C	0.254784	0.211432	-0.010110
	C295	C	0.254480	0.217473	-0.024995
	C296	C	0.262356	0.227873	-0.024906
	C297	C	0.270394	0.232380	-0.010258
	C298	C	0.270874	0.226440	0.003995
	C299	C	0.263157	0.216022	0.004429
	H300	H	0.262351	0.232415	-0.036557
	H301	H	0.277365	0.230025	0.014725
	C302	C	0.255754	0.199628	0.019272
	C303	C	0.263337	0.209715	0.019068
	H304	H	0.256027	0.194988	0.030381
	H305	H	0.269733	0.213218	0.030011
	C306	C	0.238429	0.202506	-0.039425
	C307	C	0.246024	0.212588	-0.039653
	H308	H	0.232138	0.198967	-0.050623
	H309	H	0.245836	0.217164	-0.051021
	C310	C	0.222660	0.168890	-0.008434
	O311	O	0.224455	0.162077	-0.007121
	N312	N	0.212604	0.167261	-0.007859
	H313	H	0.211620	0.173422	-0.006967
	C314	C	0.279001	0.243465	-0.010415
	O315	O	0.288101	0.246129	-0.009445
	N316	N	0.275622	0.250402	-0.011378
	H317	H	0.267895	0.247847	-0.010123
	C318	C	0.162962	0.083431	0.007757
	C319	C	0.157890	0.076541	0.022886
	C320	C	0.160219	0.068893	0.025076
	C321	C	0.167727	0.068041	0.011330
	C322	C	0.172702	0.074948	-0.004428
	C323	C	0.170172	0.082511	-0.006054
	H324	H	0.152163	0.077272	0.033081
	H325	H	0.173690	0.087574	-0.018363
	C326	C	0.170218	0.060328	0.013296
	C327	C	0.165293	0.053461	0.029139
	C328	C	0.167924	0.045983	0.030936
	C329	C	0.175203	0.045128	0.017236
	C330	C	0.180189	0.051950	0.001965
	C331	C	0.177775	0.059522	-0.000368
	H332	H	0.164459	0.040962	0.043325
	H333	H	0.186020	0.051317	-0.008048
	C334	C	0.180213	0.073883	-0.018100
	C335	C	0.182645	0.066572	-0.016126
	H336	H	0.183957	0.079103	-0.030100
	H337	H	0.188351	0.065903	-0.026502
	C338	C	0.155325	0.061820	0.040786
	C339	C	0.157761	0.054511	0.042768
	H340	H	0.149617	0.062487	0.051159
	H341	H	0.154007	0.049283	0.054754
	C342	C	0.160094	0.091412	0.005716
	O343	O	0.151164	0.089444	0.006440
	N344	N	0.168590	0.101341	0.004159
	H345	H	0.175894	0.102698	0.005712
	C346	C	0.178338	0.037377	0.019586
	O347	O	0.187362	0.039658	0.019537
	N348	N	0.170045	0.027368	0.021408
	H349	H	0.162662	0.025719	0.019487
	C350	C	-0.057548	0.230145	0.935500
	C351	C	-0.067740	0.227276	0.941689
	C352	C	-0.075444	0.224085	0.926651
	C353	C	-0.072710	0.224037	0.904863
	C354	C	-0.062180	0.227418	0.898734
	C355	C	-0.054740	0.230506	0.914226
	H356	H	-0.069644	0.227391	0.958303
	H357	H	-0.046703	0.233279	0.909674
	C358	C	-0.080443	0.220564	0.889286
	C359	C	-0.091020	0.217047	0.895278
	C360	C	-0.098522	0.213521	0.879610
	C361	C	-0.095682	0.213534	0.858366
	C362	C	-0.085400	0.216733	0.852429
	C363	C	-0.077673	0.220377	0.867539
	H364	H	-0.106606	0.210743	0.883720
	H365	H	-0.083442	0.216263	0.835919
	C366	C	-0.059577	0.227401	0.876697
	C367	C	-0.066969	0.224004	0.861836
	H368	H	-0.051557	0.230078	0.872140
	H369	H	-0.064945	0.223955	0.845273
	C370	C	-0.086114	0.220703	0.932252
	C371	C	-0.093514	0.217329	0.917359
	H372	H	-0.088145	0.220887	0.948796
	H373	H	-0.101517	0.214772	0.921872
	C374	C	-0.049312	0.233422	0.951582
	O375	O	-0.048774	0.238627	0.967935
	N376	N	-0.042877	0.229321	0.946249
	H377	H	-0.045276	0.223124	0.935184
	C378	C	-0.103587	0.209705	0.841310
	O379	O	-0.110531	0.200791	0.838392
	N380	N	-0.101966	0.217426	0.829268
	H381	H	-0.098150	0.224801	0.836438
	C382	C	-0.030597	0.263430	0.024790
	C383	C	-0.029195	0.263631	0.046164
	C384	C	-0.037013	0.256186	0.058074
	C385	C	-0.046597	0.248496	0.048288
	C386	C	-0.048046	0.248468	0.026541
	C387	C	-0.039951	0.255948	0.015083
	H388	H	-0.021962	0.269632	0.053476
	H389	H	-0.040845	0.255937	-0.001525
	C390	C	-0.054681	0.240932	0.060211
	C391	C	-0.053172	0.240925	0.081906
	C392	C	-0.061299	0.233598	0.093530
	C393	C	-0.070906	0.226495	0.084228
	C394	C	-0.072299	0.226176	0.062801
	C395	C	-0.064320	0.233297	0.050547
	H396	H	-0.060102	0.233428	0.109870
	H397	H	-0.079735	0.220398	0.055889
	C398	C	-0.057818	0.240642	0.017208
	C399	C	-0.065544	0.233422	0.028582
	H400	H	-0.058846	0.240650	0.000667
	H401	H	-0.072801	0.227542	0.021166
	C402	C	-0.035711	0.255966	0.079946
	C403	C	-0.043369	0.248664	0.091247
	H404	H	-0.028406	0.261795	0.087264
	H405	H	-0.042238	0.248618	0.107700
	C406	C	-0.021937	0.271460	0.012496
	O407	O	-0.022839	0.277465	0.003487
	N408	N	-0.013052	0.270706	0.011407
	H409	H	-0.013099	0.265170	0.018861
	C410	C	-0.080024	0.219482	0.097385
	O411	O	-0.085933	0.210449	0.091907
	N412	N	-0.081383	0.224892	0.115376
	H413	H	-0.075607	0.232219	0.119881
	C414	C	0.918801	0.851698	0.025505
	C415	C	0.922468	0.847334	0.037851
	C416	C	0.932818	0.849674	0.036167
	C417	C	0.939618	0.856475	0.021350
	C418	C	0.935748	0.860684	0.008369
	C419	C	0.925342	0.858146	0.010547
	H420	H	0.917178	0.842161	0.048964
	H421	H	0.922290	0.861065	0.000287
	C422	C	0.950193	0.859031	0.019506
	C423	C	0.954066	0.854828	0.032507
	C424	C	0.964521	0.857512	0.030579
	C425	C	0.971175	0.864358	0.016331
	C426	C	0.967415	0.868415	0.003411
	C427	C	0.957006	0.865891	0.004784
	H428	H	0.967600	0.854552	0.040681
	H429	H	0.972746	0.873702	-0.007485
	C430	C	0.942760	0.867459	-0.006533
	C431	C	0.952869	0.869952	-0.008198
	H432	H	0.939800	0.870599	-0.016469
	H433	H	0.958057	0.875106	-0.019435
	C434	C	0.936910	0.845478	0.048908
	C435	C	0.947009	0.847936	0.047189
	H436	H	0.931704	0.840280	0.060060
	H437	H	0.949942	0.844717	0.056984
	C438	C	0.907591	0.848874	0.027679
	O439	O	0.900575	0.840189	0.030028
	N440	N	0.906065	0.857195	0.027949
	H441	H	0.912345	0.864461	0.028310
	C442	C	0.982346	0.867124	0.014048
	O443	O	0.989492	0.875994	0.014874
	N444	N	0.983758	0.858675	0.010325
	H445	H	0.977445	0.851438	0.008166
	C446	C	0.821042	0.826400	0.059537
	C447	C	0.822510	0.824584	0.079461
	C448	C	0.814507	0.816341	0.089475
	C449	C	0.804713	0.809869	0.079301
	C450	C	0.803217	0.811888	0.059140
	C451	C	0.811424	0.820194	0.049653
	H452	H	0.829849	0.829710	0.087365
	H453	H	0.810374	0.821978	0.034541
	C454	C	0.796429	0.801547	0.089347
	C455	C	0.797871	0.799636	0.109663
	C456	C	0.789576	0.791505	0.119399
	C457	C	0.780026	0.785168	0.109330
	C458	C	0.778490	0.787103	0.089583
	C459	C	0.786586	0.795168	0.079310
	H460	H	0.790473	0.790020	0.134946
	H461	H	0.770917	0.782429	0.082340
	C462	C	0.793227	0.805315	0.049378
	C463	C	0.785323	0.797373	0.058962
	H464	H	0.792126	0.806899	0.034096
	H465	H	0.777845	0.792550	0.051379
	C466	C	0.815738	0.814201	0.109915
	C467	C	0.807834	0.806260	0.119500
	H468	H	0.823164	0.819128	0.117645
	H469	H	0.808879	0.804789	0.134943
	C470	C	0.829425	0.835588	0.049339
	O471	O	0.827640	0.841320	0.041391
	N472	N	0.839305	0.836804	0.049223
	H473	H	0.840197	0.831257	0.054295
	C474	C	0.771186	0.776893	0.120863
	O475	O	0.769190	0.778424	0.139153
	N476	N	0.765635	0.767310	0.108998
	H477	H	0.768267	0.766174	0.094447
	C478	C	0.710566	-0.018211	0.850463
	C479	C	0.710173	-0.013574	0.833446
	C480	C	0.711715	-0.003594	0.836333
	C481	C	0.713446	0.001726	0.857022
	C482	C	0.713469	-0.003227	0.874442
	C483	C	0.712017	-0.013179	0.870858
	H484	H	0.708865	-0.017752	0.817888
	H485	H	0.711971	-0.017057	0.883918
	C486	C	0.715303	0.011984	0.860194
	C487	C	0.715610	0.017041	0.842688
	C488	C	0.717827	0.027265	0.846013
	C489	C	0.719493	0.032469	0.866288
	C490	C	0.719288	0.027582	0.883465
	C491	C	0.717190	0.017388	0.880803
	H492	H	0.718547	0.031244	0.832615
	H493	H	0.720903	0.031862	0.898950
	C494	C	0.715175	0.002327	0.895090
	C495	C	0.716944	0.012120	0.898103
	H496	H	0.715042	-0.001500	0.908336
	H497	H	0.718258	0.016191	0.913765
	C498	C	0.711796	0.001598	0.819063
	C499	C	0.713709	0.011435	0.822066
	H500	H	0.710374	-0.002524	0.803438
	H501	H	0.713815	0.015245	0.808843
	C502	C	0.709451	-0.028682	0.846385
	O503	O	0.701534	-0.036378	0.839963
	N504	N	0.718545	-0.028499	0.850401
	H505	H	0.725004	-0.021481	0.854228
	C506	C	0.722471	0.043646	0.869564
	O507	O	0.728831	0.049831	0.882462
	N508	N	0.716902	0.046166	0.857497
	H509	H	0.711093	0.040485	0.848120
	C510	C	0.709673	-0.018795	-0.023452
	C511	C	0.713420	-0.014984	-0.002960
	C512	C	0.706764	-0.018643	0.014391
	C513	C	0.696027	-0.026165	0.010980
	C514	C	0.692177	-0.029626	-0.009982
	C515	C	0.699094	-0.025807	-0.026895
	H516	H	0.721565	-0.009243	-0.000521
	H517	H	0.696332	-0.028409	-0.042926
	C518	C	0.689257	-0.030396	0.028358
	C519	C	0.693184	-0.027212	0.049278
	C520	C	0.686543	-0.031903	0.066069
	C521	C	0.676123	-0.039547	0.062524
	C522	C	0.672230	-0.042661	0.042089
	C523	C	0.678607	-0.038175	0.024880
	H524	H	0.689601	-0.029872	0.081845
	H525	H	0.664209	-0.048805	0.039686
	C526	C	0.681311	-0.037165	-0.012937
	C527	C	0.674866	-0.041248	0.003634
	H528	H	0.678376	-0.039632	-0.028851
	H529	H	0.666733	-0.047028	0.001089
	C530	C	0.710400	-0.015264	0.035700
	C531	C	0.703958	-0.019367	0.052268
	H532	H	0.718503	-0.009405	0.038294
	H533	H	0.706878	-0.016807	0.068185
	C534	C	0.716913	-0.015546	-0.042146
	O535	O	0.715324	-0.012357	-0.056931
	N536	N	0.725391	-0.016871	-0.040830
	H537	H	0.726490	-0.019177	-0.027557
	C538	C	0.669274	-0.045372	0.080127
	O539	O	0.663578	-0.054677	0.078013
	N540	N	0.669336	-0.039280	0.098453
	H541	H	0.673779	-0.031457	0.099215
	C542	C	0.286431	0.294354	-0.016915
	C543	C	0.280990	0.283663	-0.014169
	O544	O	0.270664	0.278481	-0.012130
	C545	C	0.285984	0.277940	-0.012759
	C546	C	0.296978	0.283901	-0.009980
	O547	O	0.302651	0.279572	-0.008741
	C548	C	0.302591	0.294854	-0.008022
	C549	C	0.297356	0.299547	-0.014548
	O550	O	0.302816	0.309114	-0.020140
	H551	H	0.297584	0.271815	-0.010425
	H552	H	0.310444	0.311367	-0.018031
	H553	H	0.268662	0.283933	-0.012624
	N554	N	0.272534	0.296454	-0.027846
	C555	C	0.282198	0.300279	-0.023412
	H556	H	0.287876	0.308328	-0.025195
	N557	N	0.282745	0.260707	-0.011085
	C558	C	0.279344	0.266797	-0.013094
	H559	H	0.271064	0.263635	-0.015157
	N560	N	0.316944	0.309361	0.011886
	C561	C	0.313079	0.300581	0.000258
	H562	H	0.317957	0.297244	-0.003925
	C563	C	0.165105	0.001722	0.028113
	C564	C	0.174447	0.001475	0.028425
	O565	O	0.183734	0.010102	0.028176
	C566	C	0.174714	-0.007685	0.029377
	C567	C	0.164887	-0.016973	0.030047
	O568	O	0.164240	-0.026016	0.030598
	C569	C	0.155174	-0.017414	0.030225
	C570	C	0.155669	-0.007829	0.029932
	O571	O	0.147085	-0.007231	0.031859
	H572	H	0.171687	-0.024469	0.030397
	H573	H	0.141098	-0.014517	0.033409
	H574	H	0.182298	0.015911	0.027757
	N575	N	0.172017	0.019725	0.023614
	C576	C	0.164177	0.010626	0.025824
	H577	H	0.156327	0.009302	0.025797
	N578	N	0.186564	-0.014058	0.030162
	C579	C	0.184972	-0.006540	0.029390
	H580	H	0.191612	0.001227	0.028572
	N581	N	0.136510	-0.029244	0.028946
	C582	C	0.145811	-0.027605	0.029919
	H583	H	0.146937	-0.034096	0.030321
	C584	C	-0.078718	0.244557	0.816518
	C585	C	-0.078623	0.252254	0.805911
	O586	O	-0.071166	0.262105	0.809857
	C587	C	-0.085851	0.249944	0.789936
	C588	C	-0.094447	0.239580	0.787645
	O589	O	-0.102611	0.236808	0.775915
	C590	C	-0.095004	0.231611	0.798066
	C591	C	-0.085818	0.234310	0.808411
	O592	O	-0.083282	0.227197	0.809596
	H593	H	-0.101121	0.243299	0.769875
	H594	H	-0.089310	0.220680	0.801665
	H595	H	-0.066745	0.261931	0.821030
	N596	N	-0.069099	0.254521	0.848176
	C597	C	-0.074034	0.245815	0.836517
	H598	H	-0.075449	0.238687	0.841834
	N599	N	-0.089536	0.256844	0.762110
	C600	C	-0.083850	0.258198	0.777701
	H601	H	-0.077105	0.265755	0.782134
	N602	N	-0.107803	0.215137	0.811948
	C603	C	-0.104806	0.221845	0.798600
	H604	H	-0.110332	0.220001	0.786297
	C605	C	-0.080710	0.248370	0.100818
	C606	C	-0.078380	0.256740	0.116659
	O607	O	-0.071872	0.266447	0.112655
	C608	C	-0.082733	0.255434	0.137399
	C609	C	-0.088838	0.245071	0.142591
	O610	O	-0.093883	0.242717	0.160827
	C611	C	-0.090002	0.236544	0.128562
	C612	C	-0.087385	0.238423	0.107291
	O613	O	-0.091770	0.230582	0.092148
	H614	H	-0.092495	0.249517	0.168885
	H615	H	-0.096538	0.224285	0.100169
	H616	H	-0.069542	0.265939	0.097404
	N617	N	-0.071085	0.256943	0.070120
	C618	C	-0.077242	0.248666	0.078998
	H619	H	-0.080181	0.241186	0.069755
	N620	N	-0.082747	0.264558	0.171166
	C621	C	-0.079889	0.264732	0.151688
	H622	H	-0.075054	0.272075	0.145248
	N623	N	-0.089784	0.220662	0.128696
	C624	C	-0.093115	0.226788	0.136429
	H625	H	-0.098572	0.224601	0.149604
	C626	C	0.004695	0.852994	0.002121
	C627	C	0.014648	0.861973	0.006249
	O628	O	0.015836	0.871358	0.009014
	C629	C	0.023956	0.861727	0.007216
	C630	C	0.022840	0.851771	0.004147
	O631	O	0.030742	0.850524	0.007660
	C632	C	0.013411	0.842549	-0.002245
	C633	C	0.004600	0.843602	-0.003780
	O634	O	-0.004394	0.835695	-0.011403
	H635	H	0.036734	0.857707	0.012457
	H636	H	-0.003154	0.829717	-0.015403
	H637	H	0.008628	0.870255	0.007372
	N638	N	-0.006407	0.860267	0.009380
	C639	C	-0.005324	0.852416	0.003644
	H640	H	-0.012147	0.844839	-0.000261
	N641	N	0.042712	0.872635	0.010391
	C642	C	0.033626	0.871622	0.010341
	H643	H	0.032952	0.878472	0.012500
	N644	N	0.005689	0.824074	-0.011158
	C645	C	0.013671	0.833026	-0.005712
	H646	H	0.021157	0.833716	-0.003791
	C647	C	0.728234	0.723913	0.102182
	C648	C	0.738428	0.732465	0.099716
	O649	O	0.744619	0.731887	0.084265
	C650	C	0.742822	0.741750	0.113615
	C651	C	0.737475	0.741224	0.133158
	O652	O	0.740948	0.749225	0.147937
	C653	C	0.728333	0.732087	0.138583
	C654	C	0.723383	0.724113	0.121923
	O655	O	0.713517	0.716621	0.123974
	H656	H	0.747536	0.755033	0.141997
	H657	H	0.711289	0.718446	0.138629
	H658	H	0.740273	0.724549	0.076955
	N659	N	0.725147	0.716492	0.065926
	C660	C	0.721940	0.716235	0.085231
	H661	H	0.714037	0.710571	0.089511
	N662	N	0.757005	0.759507	0.117526
	C663	C	0.752198	0.750640	0.106492
	H664	H	0.755065	0.749516	0.090881
	N665	N	0.719910	0.723752	0.170378
	C666	C	0.724591	0.731802	0.160179
	H667	H	0.725811	0.739071	0.168409
	C668	C	0.686424	0.038658	0.862525
	C669	C	0.681592	0.039270	0.844989
	O670	O	0.672129	0.031587	0.839079
	C671	C	0.686496	0.047560	0.832218
	C672	C	0.697416	0.054299	0.835131
	O673	O	0.702961	0.062322	0.824117
	C674	C	0.703173	0.052862	0.849592
	C675	C	0.697210	0.045946	0.864695
	O676	O	0.701525	0.046623	0.882704
	H677	H	0.697838	0.062308	0.814590
	H678	H	0.709024	0.052702	0.881801
	H679	H	0.670245	0.026254	0.849365
	N680	N	0.671139	0.026807	0.881512
	C681	C	0.681158	0.032134	0.879314
	H682	H	0.686156	0.032115	0.890748
	N683	N	0.683429	0.054819	0.804044
	C684	C	0.679979	0.047990	0.817174
	H685	H	0.671754	0.042113	0.817395
	N686	N	0.720826	0.056156	0.853724
	C687	C	0.714465	0.058794	0.848367
	H688	H	0.717912	0.066302	0.842467
	C689	C	0.652587	-0.024881	0.102835
	C690	C	0.651164	-0.019303	0.121123
	O691	O	0.648471	-0.012330	0.119572
	C692	C	0.652143	-0.020924	0.142004
	C693	C	0.655595	-0.027916	0.143906
	O694	O	0.658334	-0.028863	0.162370
	C695	C	0.656755	-0.034038	0.126409
	C696	C	0.653750	-0.033187	0.106705
	O697	O	0.651069	-0.040793	0.091127
	H698	H	0.657351	-0.023859	0.173053
	H699	H	0.651600	-0.046339	0.097678
	H700	H	0.647814	-0.012303	0.103907
	N701	N	0.652196	-0.015597	0.075489
	C702	C	0.652925	-0.023048	0.081026
	H703	H	0.654055	-0.028240	0.069272
	N704	N	0.649596	-0.016453	0.178719
	C705	C	0.649336	-0.015491	0.159119
	H706	H	0.646910	-0.010376	0.154704
	N707	N	0.665955	-0.043541	0.116983
	C708	C	0.660959	-0.040419	0.130149
	H709	H	0.659598	-0.042967	0.145804
	C710	C	0.272702	0.319055	0.955666
	C711	C	0.270952	0.327096	0.963084
	C712	C	0.268859	0.332152	0.949084
	C713	C	0.268779	0.329163	0.927036
	C714	C	0.271012	0.321239	0.919568
	C715	C	0.273029	0.316369	0.934060
	H716	H	0.271081	0.329268	0.979869
	H717	H	0.274957	0.310519	0.928444
	C718	C	0.266434	0.334007	0.912538
	C719	C	0.264094	0.341872	0.919893
	C720	C	0.261699	0.346451	0.905291
	C721	C	0.261699	0.343436	0.883766
	C722	C	0.263725	0.335572	0.876534
	C723	C	0.266221	0.330865	0.890545
	H724	H	0.259830	0.352381	0.910455
	H725	H	0.263252	0.333046	0.859891
	C726	C	0.270984	0.318414	0.897275
	C727	C	0.268657	0.322970	0.883457
	H728	H	0.272779	0.312466	0.891684
	H729	H	0.268593	0.320744	0.866704
	C730	C	0.266655	0.340223	0.956036
	C731	C	0.264359	0.344812	0.942185
	H732	H	0.266849	0.342571	0.972755
	H733	H	0.262681	0.350848	0.947716
	C734	C	0.274869	0.313576	0.970663
	O735	O	0.280054	0.318025	0.986285
	N736	N	0.269793	0.302882	0.965384
	H737	H	0.263617	0.299408	0.955505
	C738	C	0.259105	0.348189	0.867858
	O739	O	0.250565	0.347069	0.866690
	N740	N	0.267473	0.353832	0.854649
	H741	H	0.274717	0.356720	0.860470
	C742	C	0.304174	0.323462	0.036726
	C743	C	0.304153	0.322385	0.058024
	C744	C	0.297186	0.323614	0.072121
	C745	C	0.290248	0.326267	0.064635
	C746	C	0.290442	0.327529	0.042919
	C747	C	0.297401	0.326035	0.029245
	H748	H	0.309616	0.320593	0.063565
	H749	H	0.297542	0.326802	0.012649
	C750	C	0.283232	0.327724	0.078813
	C751	C	0.282999	0.326376	0.100485
	C752	C	0.276268	0.328131	0.114326
	C753	C	0.270007	0.331434	0.107225
	C754	C	0.269867	0.332343	0.085882
	C755	C	0.276388	0.330528	0.071459
	H756	H	0.275905	0.326884	0.130676
	H757	H	0.264718	0.334633	0.080729
	C758	C	0.283387	0.330260	0.035930
	C759	C	0.276702	0.331675	0.049465
	H760	H	0.283545	0.331149	0.019390
	H761	H	0.271398	0.333645	0.043811
	C762	C	0.296735	0.322259	0.094022
	C763	C	0.289935	0.323498	0.107486
	H764	H	0.301975	0.320184	0.099584
	H765	H	0.289706	0.322435	0.123924
	C766	C	0.311732	0.322008	0.022103
	O767	O	0.318286	0.328657	0.011936
	N768	N	0.309873	0.311982	0.020455
	H769	H	0.303935	0.306752	0.029006
	C770	C	0.263780	0.334589	0.122605
	O771	O	0.254956	0.332293	0.119479
	N772	N	0.269751	0.341269	0.139600
	H773	H	0.276744	0.342067	0.142171
	C774	C	0.210326	-0.015829	0.030590
	C775	C	0.214264	-0.020602	0.015858
	C776	C	0.224943	-0.017063	0.014737
	C777	C	0.231850	-0.008388	0.028710
	C778	C	0.227766	-0.003568	0.043773
	C779	C	0.217033	-0.007360	0.044411
	H780	H	0.208886	-0.027195	0.005436
	H781	H	0.213848	-0.003845	0.055976
	C782	C	0.242751	-0.004571	0.027645
	C783	C	0.246830	-0.009423	0.012659
	C784	C	0.257586	-0.005496	0.011784
	C785	C	0.264325	0.003147	0.025162
	C786	C	0.260363	0.007770	0.040275
	C787	C	0.249653	0.004077	0.041679
	H788	H	0.260824	-0.009143	0.000687
	H789	H	0.265616	0.014140	0.051246
	C790	C	0.234902	0.005082	0.057813
	C791	C	0.245300	0.008707	0.056834
	H792	H	0.231773	0.008667	0.069357
	H793	H	0.250538	0.015209	0.067597
	C794	C	0.229273	-0.021825	-0.000124
	C795	C	0.239671	-0.018207	-0.001084
	H796	H	0.223997	-0.028459	-0.010587
	H797	H	0.242789	-0.021912	-0.012342
	C798	C	0.198887	-0.019548	0.030550
	O799	O	0.192235	-0.028574	0.030627
	N800	N	0.196659	-0.011745	0.029903
	H801	H	0.202590	-0.004483	0.027970
	C802	C	0.275809	0.007045	0.023923
	O803	O	0.279268	0.001349	0.022687
	N804	N	0.282042	0.017678	0.022999
	H805	H	0.278601	0.021882	0.022253
	C806	C	0.109978	0.947481	0.026711
	C807	C	0.101134	0.944290	0.039544
	C808	C	0.093089	0.933925	0.038090
	C809	C	0.093898	0.926603	0.022969
	C810	C	0.102872	0.929942	0.009641
	C811	C	0.110759	0.940381	0.011637
	H812	H	0.100611	0.949983	0.050781
	H813	H	0.117413	0.943020	0.001092
	C814	C	0.085750	0.916050	0.021054
	C815	C	0.076767	0.912718	0.034358
	C816	C	0.068809	0.902312	0.032147
	C817	C	0.069550	0.895238	0.016936
	C818	C	0.078433	0.898392	0.004239
	C819	C	0.086554	0.908727	0.005921
	H820	H	0.062092	0.899669	0.042526
	H821	H	0.078939	0.892689	-0.006992
	C822	C	0.103457	0.922386	-0.005476
	C823	C	0.095718	0.912300	-0.007194
	H824	H	0.110274	0.924920	-0.015565
	H825	H	0.096298	0.906708	-0.018634
	C826	C	0.083957	0.930343	0.051301
	C827	C	0.076216	0.920259	0.049580
	H828	H	0.083397	0.935929	0.062796
	H829	H	0.069410	0.917719	0.059704
	C830	C	0.118217	0.958761	0.028296
	O831	O	0.116106	0.965519	0.030271
	N832	N	0.128411	0.960807	0.028598
	H833	H	0.129690	0.954898	0.029008
	C834	C	0.061057	0.884050	0.014741
	O835	O	0.062794	0.877078	0.014143
	N836	N	0.051095	0.882452	0.013128
	H837	H	0.050294	0.888599	0.011879
	C838	C	-0.088997	0.273117	0.722874
	C839	C	-0.096499	0.274589	0.714961
	C840	C	-0.093629	0.283199	0.704417
	C841	C	-0.082864	0.290656	0.702076
	C842	C	-0.075223	0.289171	0.710334
	C843	C	-0.078423	0.280394	0.720627
	H844	H	-0.104643	0.268812	0.716717
	H845	H	-0.072630	0.279104	0.726321
	C846	C	-0.079773	0.299444	0.691314
	C847	C	-0.087428	0.300785	0.682653
	C848	C	-0.084218	0.309405	0.671867
	C849	C	-0.073675	0.316738	0.669856
	C850	C	-0.066115	0.315423	0.678038
	C851	C	-0.069000	0.306862	0.688799
	H852	H	-0.089891	0.310459	0.664805
	H853	H	-0.057971	0.320978	0.675562
	C854	C	-0.064428	0.296788	0.707592
	C855	C	-0.061474	0.305195	0.697388
	H856	H	-0.058628	0.295654	0.713828
	H857	H	-0.053303	0.310817	0.695404
	C858	C	-0.101168	0.284807	0.695705
	C859	C	-0.098219	0.293149	0.685296
	H860	H	-0.109331	0.279111	0.697493
	H861	H	-0.104003	0.294199	0.678712
	C862	C	-0.092666	0.263681	0.734042
	O863	O	-0.100226	0.255429	0.728269
	N864	N	-0.086919	0.265123	0.751635
	H865	H	-0.081463	0.272361	0.757436
	C866	C	-0.070529	0.325679	0.657536
	O867	O	-0.073265	0.324533	0.639600
	N868	N	-0.064852	0.335339	0.669019
	H869	H	-0.063244	0.335765	0.684340
	C870	C	-0.064387	0.260617	0.014015
	C871	C	-0.074448	0.254744	0.005875
	C872	C	-0.076077	0.251951	-0.015782
	C873	C	-0.067323	0.255224	-0.029696
	C874	C	-0.057065	0.261239	-0.021324
	C875	C	-0.055773	0.263984	0.000481
	H876	H	-0.081059	0.252518	0.016462
	H877	H	-0.048062	0.268838	0.007116
	C878	C	-0.068845	0.252785	-0.051845
	C879	C	-0.079114	0.247115	-0.060126
	C880	C	-0.080455	0.245286	-0.081934
	C881	C	-0.071942	0.248916	-0.095730
	C882	C	-0.061842	0.253980	-0.087726
	C883	C	-0.060148	0.256104	-0.065919
	H884	H	-0.088241	0.241039	-0.088339
	H885	H	-0.055252	0.256258	-0.098342
	C886	C	-0.048441	0.264264	-0.035833
	C887	C	-0.049903	0.261753	-0.056962
	H888	H	-0.040652	0.268638	-0.029412
	H889	H	-0.043262	0.264123	-0.067501
	C890	C	-0.086344	0.245942	-0.024575
	C891	C	-0.087789	0.243637	-0.045688
	H892	H	-0.092961	0.243355	-0.013926
	H893	H	-0.095558	0.239182	-0.052133
	C894	C	-0.063160	0.263755	0.037390
	O895	O	-0.057678	0.272562	0.045044
	N896	N	-0.069070	0.255462	0.049167
	H897	H	-0.071959	0.248216	0.041699
	C898	C	-0.074374	0.246837	-0.118878
	O899	O	-0.082587	0.239592	-0.125607
	N900	N	-0.066961	0.254137	-0.131611
	H901	H	-0.061028	0.260853	-0.124751
	C902	C	-0.078617	0.284005	0.216625
	C903	C	-0.067816	0.289928	0.218988
	C904	C	-0.063188	0.299440	0.231561
	C905	C	-0.069600	0.303144	0.241719
	C906	C	-0.080598	0.297137	0.238883
	C907	C	-0.084922	0.287641	0.226309
	H908	H	-0.063047	0.286918	0.211723
	H909	H	-0.093265	0.282909	0.224163
	C910	C	-0.065075	0.312678	0.254936
	C911	C	-0.054103	0.318568	0.258188
	C912	C	-0.049840	0.327792	0.271684
	C913	C	-0.056204	0.331206	0.282034
	C914	C	-0.066937	0.325579	0.278647
	C915	C	-0.071511	0.316295	0.265342
	H916	H	-0.041554	0.332288	0.274654
	H917	H	-0.071786	0.328233	0.287079
	C918	C	-0.086867	0.301058	0.249303
	C919	C	-0.082548	0.310169	0.261862
	H920	H	-0.095204	0.296499	0.246983
	H921	H	-0.087414	0.312949	0.269687
	C922	C	-0.052136	0.305642	0.234822
	C923	C	-0.047823	0.314722	0.247491
	H924	H	-0.047270	0.302855	0.227026
	H925	H	-0.039491	0.319255	0.249890
	C926	C	-0.083629	0.273712	0.203506
	O927	O	-0.091098	0.266090	0.209706
	N928	N	-0.079470	0.273735	0.183285
	H929	H	-0.073826	0.280493	0.178142
	C930	C	-0.051405	0.341086	0.296544
	O931	O	-0.045344	0.342858	0.310172
	N932	N	-0.053936	0.348278	0.292122
	H933	H	-0.058308	0.346750	0.279333
	C934	C	0.001536	0.797688	-0.025265
	C935	C	-0.006927	0.787692	-0.024110
	C936	C	-0.005533	0.779200	-0.025706
	C937	C	0.004696	0.780813	-0.028792
	C938	C	0.013291	0.791000	-0.030507
	C939	C	0.011550	0.799281	-0.028942
	H940	H	-0.014653	0.786592	-0.021828
	H941	H	0.018014	0.806937	-0.031064
	C942	C	0.006300	0.772297	-0.030271
	C943	C	-0.002318	0.762096	-0.028817
	C944	C	-0.000573	0.753825	-0.030240
	C945	C	0.009519	0.755502	-0.032494
	C946	C	0.017943	0.765435	-0.034504
	C947	C	0.016529	0.773905	-0.033332
	H948	H	-0.007141	0.746052	-0.029818
	H949	H	0.025658	0.766513	-0.036866
	C950	C	0.023497	0.792362	-0.033866
	C951	C	0.025036	0.784244	-0.035164
	H952	H	0.030015	0.800079	-0.035349
	H953	H	0.032777	0.785412	-0.037692
	C954	C	-0.014080	0.768826	-0.024455
	C955	C	-0.012557	0.760694	-0.025981
	H956	H	-0.021842	0.767637	-0.022323
	H957	H	-0.019108	0.752940	-0.025077
	C958	C	-0.000542	0.806438	-0.024019
	O959	O	-0.008458	0.805300	-0.030713
	N960	N	0.007074	0.815795	-0.013810
	H961	H	0.012904	0.816072	-0.006145
	C962	C	0.011443	0.746636	-0.034278
	O963	O	0.018046	0.746309	-0.045869
	N964	N	0.005379	0.739121	-0.020791
	H965	H	0.000946	0.740431	-0.009547
	C966	C	0.702385	0.695010	1.036415
	C967	C	0.705348	0.694352	1.015354
	C968	C	0.698194	0.691304	0.999219
	C969	C	0.687755	0.688664	1.004498
	C970	C	0.684659	0.688793	1.026070
	C971	C	0.692057	0.691914	1.041736
	H972	H	0.713300	0.696417	1.011534
	H973	H	0.689911	0.692219	1.058202
	C974	C	0.680592	0.686330	0.988352
	C975	C	0.683840	0.686737	0.966846
	C976	C	0.676953	0.685262	0.951316
	C977	C	0.666882	0.683182	0.956616
	C978	C	0.663623	0.682617	0.977641
	C979	C	0.670292	0.684129	0.993654
	H980	H	0.679635	0.686104	0.935173
	H981	H	0.655873	0.681221	0.981469
	C982	C	0.674068	0.686027	1.030886
	C983	C	0.667238	0.683805	1.015472
	H984	H	0.671669	0.685902	1.047248
	H985	H	0.659328	0.681885	1.019371
	C986	C	0.701067	0.691047	0.977347
	C987	C	0.694258	0.688925	0.961967
	H988	H	0.708886	0.692712	0.973333
	H989	H	0.696577	0.688844	0.945578
	C990	C	0.710357	0.699476	1.053575
	O991	O	0.709727	0.694847	1.068101
	N992	N	0.718335	0.709545	1.050888
	H993	H	0.718597	0.712596	1.037488
	C994	C	0.659803	0.682728	0.940502
	O995	O	0.653880	0.685898	0.944915
	N996	N	0.660021	0.677880	0.920584
	H997	H	0.664566	0.674691	0.917833
	C998	C	0.716789	0.697887	0.162646
	C999	C	0.719367	0.694236	0.178675
	C1000	C	0.722953	0.687330	0.173965
	C1001	C	0.723726	0.683844	0.152508
	C1002	C	0.720798	0.687402	0.136222
	C1003	C	0.717351	0.694406	0.141588
	H1004	H	0.718687	0.696964	0.194842
	H1005	H	0.714994	0.697097	0.129441
	C1006	C	0.727401	0.676852	0.147411
	C1007	C	0.730443	0.673412	0.163716
	C1008	C	0.734032	0.666533	0.158418
	C1009	C	0.734498	0.662898	0.137439
	C1010	C	0.731786	0.666424	0.121355
	C1011	C	0.728193	0.673347	0.125982
	H1012	H	0.736613	0.664107	0.170667
	H1013	H	0.732493	0.663693	0.105210
	C1014	C	0.721619	0.683692	0.114779
	C1015	C	0.725145	0.677029	0.109921
	H1016	H	0.719326	0.686352	0.102449
	H1017	H	0.725730	0.674350	0.093669
	C1018	C	0.726003	0.683672	0.190052
	C1019	C	0.729617	0.677093	0.185176
	H1020	H	0.725394	0.686354	0.206292
	H1021	H	0.731919	0.674456	0.197506
	C1022	C	0.713307	0.705541	0.168559
	O1023	O	0.705429	0.703527	0.178516
	N1024	N	0.720193	0.715181	0.161798
	H1025	H	0.727007	0.716309	0.154985
	C1026	C	0.738102	0.655277	0.132199
	O1027	O	0.744540	0.656238	0.118735
	N1028	N	0.732614	0.646632	0.143201
	H1029	H	0.727276	0.646396	0.154222
	C1030	C	0.671540	0.060220	0.762386
	C1031	C	0.664896	0.050551	0.751643
	C1032	C	0.657029	0.049145	0.738717
	C1033	C	0.655741	0.057668	0.736799
	C1034	C	0.662527	0.067496	0.747886
	C1035	C	0.670315	0.068585	0.760580
	H1036	H	0.666094	0.044193	0.752755
	H1037	H	0.675564	0.075991	0.769076
	C1038	C	0.647804	0.056406	0.723726
	C1039	C	0.641119	0.046622	0.712372
	C1040	C	0.633426	0.045574	0.699439
	C1041	C	0.632155	0.053926	0.697776
	C1042	C	0.638814	0.063590	0.708515
	C1043	C	0.646608	0.064965	0.721603
	H1044	H	0.628396	0.038259	0.690398
	H1045	H	0.638103	0.070132	0.706265
	C1046	C	0.661112	0.075969	0.745505
	C1047	C	0.653555	0.074771	0.732994
	H1048	H	0.666304	0.083418	0.753913
	H1049	H	0.652660	0.081268	0.731319
	C1050	C	0.650146	0.039367	0.727153
	C1051	C	0.642600	0.038174	0.714610
	H1052	H	0.651153	0.032912	0.728545
	H1053	H	0.637521	0.030768	0.705925
	C1054	C	0.679846	0.061739	0.776657
	O1055	O	0.688619	0.069127	0.776625
	N1056	N	0.676467	0.054336	0.790742
	H1057	H	0.668813	0.048835	0.791332
	C1058	C	0.624137	0.052645	0.683003
	O1059	O	0.622759	0.047957	0.665627
	N1060	N	0.617982	0.056675	0.691503
	H1061	H	0.618806	0.059615	0.706849
	C1062	C	0.667088	0.010148	-0.076686
	C1063	C	0.656908	0.006593	-0.069304
	C1064	C	0.653921	0.003197	-0.049275
	C1065	C	0.661304	0.003136	-0.036596
	C1066	C	0.671539	0.006347	-0.044629
	C1067	C	0.674234	0.009757	-0.064662
	H1068	H	0.651280	0.006470	-0.079121
	H1069	H	0.681972	0.012229	-0.071022
	C1070	C	0.658527	0.000034	-0.015938
	C1071	C	0.648382	-0.002900	-0.007695
	C1072	C	0.645950	-0.005494	0.012984
	C1073	C	0.653259	-0.005396	0.025410
	C1074	C	0.663223	-0.002516	0.017466
	C1075	C	0.665979	0.000168	-0.003118
	H1076	H	0.638383	-0.007480	0.019722
	H1077	H	0.668955	-0.002047	0.027550
	C1078	C	0.678789	0.006118	-0.031586
	C1079	C	0.676154	0.003199	-0.011837
	H1080	H	0.686494	0.008402	-0.037901
	H1081	H	0.681754	0.003147	-0.002221
	C1082	C	0.643649	-0.000127	-0.040791
	C1083	C	0.641034	-0.002976	-0.020987
	H1084	H	0.638005	-0.000223	-0.050533
	H1085	H	0.633293	-0.005369	-0.014765
	C1086	C	0.670552	0.014228	-0.097766
	O1087	O	0.675799	0.011948	-0.109909
	N1088	N	0.667481	0.021098	-0.101729
	H1089	H	0.662989	0.022732	-0.091231
	C1090	C	0.650642	-0.007386	0.048034
	O1091	O	0.646399	-0.003574	0.059341
	N1092	N	0.652914	-0.014401	0.054622
	H1093	H	0.655479	-0.018181	0.043991
	C1094	C	0.643675	-0.005189	0.228852
	C1095	C	0.650102	0.002882	0.243658
	C1096	C	0.646268	0.008268	0.257005
	C1097	C	0.635685	0.005497	0.255201
	C1098	C	0.629178	-0.002726	0.239954
	C1099	C	0.633315	-0.007918	0.226898
	H1100	H	0.658081	0.004793	0.244920
	H1101	H	0.628400	-0.014282	0.215528
	C1102	C	0.631607	0.010822	0.268712
	C1103	C	0.638071	0.018942	0.284164
	C1104	C	0.633861	0.023977	0.297492
	C1105	C	0.623497	0.021235	0.295687
	C1106	C	0.617063	0.013154	0.280845
	C1107	C	0.620975	0.007931	0.267180
	H1108	H	0.638599	0.030031	0.309573
	H1109	H	0.608909	0.010724	0.280285
	C1110	C	0.618515	-0.005420	0.238672
	C1111	C	0.614613	-0.000369	0.251632
	H1112	H	0.613586	-0.011675	0.227118
	H1113	H	0.606544	-0.002560	0.250501
	C1114	C	0.652616	0.016535	0.272614
	C1115	C	0.648716	0.021599	0.285539
	H1116	H	0.660642	0.018613	0.273941
	H1117	H	0.653596	0.027771	0.297284
	C1118	C	0.648151	-0.010623	0.214527
	O1119	O	0.652887	-0.014152	0.221079
	N1120	N	0.646664	-0.010967	0.193157
	H1121	H	0.643366	-0.007151	0.188580
	C1122	C	0.619162	0.026438	0.311169
	O1123	O	0.621489	0.028571	0.329598
	N1124	N	0.612798	0.029179	0.302460
	H1125	H	0.612016	0.028277	0.286621
	C1126	C	0.293418	0.354650	0.835651
	C1127	C	0.301968	0.361830	0.823987
	O1128	O	0.311334	0.363015	0.825572
	C1129	C	0.300988	0.367536	0.809303
	C1130	C	0.291188	0.366970	0.809405
	O1131	O	0.289775	0.373192	0.799119
	C1132	C	0.282389	0.359946	0.820812
	C1133	C	0.283609	0.352634	0.829757
	O1134	O	0.275444	0.343241	0.831641
	H1135	H	0.296726	0.377789	0.792163
	H1136	H	0.269501	0.343571	0.825283
	H1137	H	0.310176	0.358020	0.836155
	N1138	N	0.302148	0.353767	0.864890
	C1139	C	0.293683	0.350809	0.855027
	H1140	H	0.286092	0.345590	0.861548
	N1141	N	0.309785	0.378361	0.781358
	C1142	C	0.309910	0.373315	0.795897
	H1143	H	0.316890	0.373133	0.798494
	N1144	N	0.266270	0.357950	0.838218
	C1145	C	0.273351	0.361161	0.823671
	H1146	H	0.272492	0.365362	0.812191
	C1147	C	0.295130	0.362390	0.120184
	C1148	C	0.303714	0.367858	0.134194
	O1149	O	0.313196	0.369992	0.127734
	C1150	C	0.302875	0.371424	0.155569
	C1151	C	0.292617	0.368301	0.163312
	O1152	O	0.290794	0.371664	0.182397
	C1153	C	0.283658	0.361447	0.151080
	C1154	C	0.285404	0.360248	0.129175
	O1155	O	0.277724	0.357457	0.115896
	H1156	H	0.297901	0.376624	0.188923
	H1157	H	0.271631	0.356707	0.125564
	H1158	H	0.312379	0.366941	0.112369
	N1159	N	0.303065	0.359890	0.087057
	C1160	C	0.295033	0.358781	0.098017
	H1161	H	0.287478	0.354840	0.090452
	N1162	N	0.312580	0.380162	0.187599
	C1163	C	0.312385	0.377123	0.167815
	H1164	H	0.319575	0.378727	0.159512
	N1165	N	0.266435	0.346325	0.154439
	C1166	C	0.273549	0.355666	0.161186
	H1167	H	0.271975	0.359509	0.175245
	C1168	C	0.324816	0.055527	0.015419
	C1169	C	0.314068	0.048890	0.019762
	O1170	O	0.307879	0.052764	0.024349
	C1171	C	0.309319	0.038031	0.020251
	C1172	C	0.316280	0.034312	0.020762
	O1173	O	0.312919	0.024378	0.021480
	C1174	C	0.327248	0.040978	0.020975
	C1175	C	0.331045	0.051016	0.015221
	O1176	O	0.340748	0.056437	0.007930
	H1177	H	0.305014	0.020693	0.021294
	H1178	H	0.343811	0.051795	0.008334
	H1179	H	0.312747	0.060545	0.024130
	N1180	N	0.325036	0.070792	0.007293
	C1181	C	0.329864	0.065981	0.009464
	H1182	H	0.338144	0.069511	0.006014
	N1183	N	0.292627	0.022244	0.022355
	C1184	C	0.298013	0.032061	0.021057
	H1185	H	0.294070	0.036346	0.020484
	N1186	N	0.342516	0.043100	0.036972
	C1187	C	0.333878	0.037355	0.026765
	H1188	H	0.331392	0.029298	0.021858
	C1189	C	-0.045555	0.381681	0.672137
	C1190	C	-0.049955	0.371521	0.677784
	O1191	O	-0.050368	0.369996	0.697927
	C1192	C	-0.053548	0.362629	0.662902
	C1193	C	-0.052343	0.364495	0.641374
	O1194	O	-0.056874	0.356737	0.626181
	C1195	C	-0.046545	0.374533	0.634518
	C1196	C	-0.042703	0.382951	0.650647
	O1197	O	-0.035921	0.392572	0.646506
	H1198	H	-0.060858	0.350218	0.633612
	H1199	H	-0.034381	0.392107	0.630808
	H1200	H	-0.046925	0.377307	0.705669
	N1201	N	-0.048692	0.389942	0.704414
	C1202	C	-0.044584	0.390548	0.685774
	H1203	H	-0.040591	0.397855	0.678960
	N1204	N	-0.061061	0.344078	0.659271
	C1205	C	-0.057798	0.352710	0.671035
	H1206	H	-0.058163	0.352801	0.688060
	N1207	N	-0.041618	0.384015	0.604114
	C1208	C	-0.045992	0.375323	0.612022
	H1209	H	-0.049504	0.368109	0.601732
	C1210	C	-0.051482	0.389205	0.318563
	C1211	C	-0.052092	0.380479	0.306139
	O1212	O	-0.054793	0.378487	0.285980
	C1213	C	-0.050469	0.373169	0.314251
	C1214	C	-0.048216	0.375027	0.336089
	O1215	O	-0.044377	0.370097	0.344421
	C1216	C	-0.049464	0.382352	0.350210
	C1217	C	-0.051289	0.389234	0.340715
	O1218	O	-0.052920	0.396220	0.352235
	H1219	H	-0.043624	0.365522	0.332157
	H1220	H	-0.052730	0.395185	0.367479
	H1221	H	-0.056133	0.384234	0.283622
	N1222	N	-0.048891	0.400003	0.291258
	C1223	C	-0.050720	0.398124	0.310738
	H1224	H	-0.051471	0.403574	0.322451
	N1225	N	-0.051714	0.356593	0.306462
	C1226	C	-0.052187	0.364090	0.300317
	H1227	H	-0.054113	0.363743	0.284102
	N1228	N	-0.049100	0.388606	0.387034
	C1229	C	-0.048374	0.382271	0.372549
	H1230	H	-0.047048	0.376349	0.376818
	C1231	C	-0.000387	0.713833	-0.009149
	C1232	C	0.006993	0.711160	-0.018119
	O1233	O	0.015024	0.717393	-0.029650
	C1234	C	0.006120	0.701577	-0.015907
	C1235	C	-0.001099	0.695693	-0.000548
	O1236	O	-0.000239	0.688448	0.007187
	C1237	C	-0.009023	0.697489	0.008318
	C1238	C	-0.008850	0.706185	0.001951
	O1239	O	-0.017085	0.707320	0.005480
	H1240	H	0.006087	0.688596	-0.000441
	H1241	H	-0.022417	0.700896	0.012402
	H1242	H	0.014454	0.723752	-0.030017
	N1243	N	0.006423	0.730698	-0.020999
	C1244	C	-0.000406	0.723282	-0.010618
	H1245	H	-0.006702	0.723896	-0.002372
	N1246	N	0.009496	0.688954	-0.036463
	C1247	C	0.012488	0.698406	-0.029090
	H1248	H	0.020340	0.704462	-0.032712
	N1249	N	-0.022353	0.692816	0.035417
	C1250	C	-0.015621	0.691187	0.024649
	H1251	H	-0.014186	0.685211	0.028044
	C1252	C	0.648243	0.647712	0.908071
	C1253	C	0.647175	0.641812	0.888291
	O1254	O	0.646501	0.632684	0.887206
	C1255	C	0.646388	0.644957	0.868887
	C1256	C	0.648229	0.655180	0.869853
	O1257	O	0.649761	0.659767	0.852555
	C1258	C	0.648940	0.661278	0.889147
	C1259	C	0.647105	0.656338	0.907522
	O1260	O	0.643398	0.659235	0.924882
	H1261	H	0.649347	0.654572	0.840341
	H1262	H	0.642521	0.665045	0.920618
	H1263	H	0.646995	0.631777	0.902480
	N1264	N	0.652575	0.639155	0.931460
	C1265	C	0.650884	0.646391	0.928302
	H1266	H	0.651626	0.652161	0.941170
	N1267	N	0.642547	0.639366	0.831898
	C1268	C	0.643668	0.637513	0.850292
	H1269	H	0.642566	0.630037	0.852475
	N1270	N	0.656151	0.679413	0.903700
	C1271	C	0.651820	0.671962	0.888793
	H1272	H	0.650021	0.673832	0.874426
	C1273	C	0.702731	0.628218	0.132238
	C1274	C	0.696529	0.622047	0.148398
	O1275	O	0.687486	0.621329	0.154176
	C1276	C	0.699512	0.616485	0.159634
	C1277	C	0.709860	0.618519	0.156011
	O1278	O	0.713349	0.613267	0.164158
	C1279	C	0.717130	0.626261	0.143473
	C1280	C	0.712868	0.629719	0.129792
	O1281	O	0.718259	0.634116	0.112861
	H1282	H	0.707242	0.607969	0.172283
	H1283	H	0.725033	0.634018	0.113450
	H1284	H	0.686706	0.625902	0.145049
	N1285	N	0.690505	0.631396	0.116753
	C1286	C	0.699627	0.632523	0.117270
	H1287	H	0.705527	0.636933	0.105884
	N1288	N	0.693950	0.604958	0.186747
	C1289	C	0.692034	0.609925	0.174664
	H1290	H	0.684483	0.609348	0.175491
	N1291	N	0.735563	0.639484	0.143173
	C1292	C	0.728169	0.630109	0.145388
	H1293	H	0.730296	0.624611	0.148858
	C1294	C	0.586187	0.068450	0.677506
	C1295	C	0.592295	0.065493	0.687215
	O1296	O	0.593097	0.066767	0.708088
	C1297	C	0.598249	0.061609	0.675771
	C1298	C	0.597405	0.060346	0.653481
	O1299	O	0.600840	0.054861	0.641426
	C1300	C	0.592653	0.064431	0.642644
	C1301	C	0.587750	0.069106	0.655504
	O1302	O	0.584518	0.074636	0.647567
	H1303	H	0.603691	0.052305	0.651591
	H1304	H	0.586548	0.074704	0.632071
	H1305	H	0.588761	0.070085	0.713147
	N1306	N	0.574733	0.068481	0.706408
	C1307	C	0.578351	0.070515	0.687550
	H1308	H	0.575208	0.073654	0.677909
	N1309	N	0.611565	0.057408	0.678735
	C1310	C	0.605177	0.060089	0.687531
	H1311	H	0.604941	0.061558	0.704562
	N1312	N	0.587861	0.065597	0.608447
	C1313	C	0.592518	0.062790	0.619768
	H1314	H	0.596664	0.059076	0.612300
	C1315	C	0.582249	0.044166	0.317944
	C1316	C	0.589902	0.042115	0.308115
	O1317	O	0.591606	0.042231	0.287449
	C1318	C	0.596023	0.039629	0.319261
	C1319	C	0.595040	0.040537	0.341571
	O1320	O	0.601871	0.040570	0.353748
	C1321	C	0.587084	0.041789	0.352383
	C1322	C	0.580276	0.042604	0.339569
	O1323	O	0.571293	0.041533	0.347167
	H1324	H	0.607123	0.039891	0.343698
	H1325	H	0.570891	0.040018	0.362346
	H1326	H	0.586552	0.043992	0.282056
	N1327	N	0.577338	0.049941	0.289508
	C1328	C	0.576357	0.047820	0.308708
	H1329	H	0.570928	0.048966	0.319259
	N1330	N	0.607476	0.032759	0.315465
	C1331	C	0.602249	0.035943	0.307055
	H1332	H	0.602153	0.035744	0.290060
	N1333	N	0.580560	0.044744	0.386483
	C1334	C	0.587071	0.042955	0.375271
	H1335	H	0.592864	0.042207	0.382825
	C1336	C	0.328441	0.393510	0.740480
	C1337	C	0.332151	0.403329	0.734438
	C1338	C	0.341259	0.408152	0.722333
	C1339	C	0.346895	0.402990	0.716415
	C1340	C	0.343129	0.393000	0.722793
	C1341	C	0.333934	0.388408	0.734769
	H1342	H	0.327724	0.407101	0.738896
	H1343	H	0.330899	0.380707	0.739084
	C1344	C	0.356118	0.407707	0.703925
	C1345	C	0.359723	0.417586	0.697118
	C1346	C	0.368686	0.421990	0.684467
	C1347	C	0.374188	0.416917	0.678797
	C1348	C	0.370653	0.407190	0.685197
	C1349	C	0.361681	0.402486	0.697755
	H1350	H	0.371417	0.429373	0.678739
	H1351	H	0.374767	0.403179	0.679899
	C1352	C	0.348938	0.387956	0.716453
	C1353	C	0.357754	0.392466	0.704575
	H1354	H	0.346082	0.380379	0.721311
	H1355	H	0.361984	0.388516	0.699867
	C1356	C	0.345158	0.418158	0.715480
	C1357	C	0.353916	0.422629	0.703438
	H1358	H	0.340856	0.422050	0.720027
	H1359	H	0.356697	0.430138	0.698293
	C1360	C	0.318599	0.388752	0.753462
	O1361	O	0.311262	0.389648	0.750248
	N1362	N	0.318612	0.383438	0.769633
	H1363	H	0.325325	0.383950	0.773377
	C1364	C	0.383419	0.421623	0.664256
	O1365	O	0.383053	0.424542	0.647813
	N1366	N	0.392569	0.422994	0.671891
	H1367	H	0.392609	0.421074	0.686446
	C1368	C	0.306414	0.355763	0.029599
	C1369	C	0.301387	0.360546	0.023257
	C1370	C	0.298759	0.359385	0.002184
	C1371	C	0.301330	0.353287	-0.013001
	C1372	C	0.306483	0.348438	-0.006466
	C1373	C	0.309100	0.349909	0.014783
	H1374	H	0.299713	0.365396	0.034747
	H1375	H	0.313324	0.346582	0.019965
	C1376	C	0.299087	0.352363	-0.034647
	C1377	C	0.294324	0.357576	-0.041168
	C1378	C	0.292752	0.357091	-0.062612
	C1379	C	0.295760	0.351613	-0.077729
	C1380	C	0.299869	0.345966	-0.071353
	C1381	C	0.301725	0.346375	-0.049994
	H1382	H	0.289219	0.361113	-0.067696
	H1383	H	0.301623	0.341204	-0.082877
	C1384	C	0.308806	0.342228	-0.022184
	C1385	C	0.306466	0.341173	-0.042797
	H1386	H	0.312508	0.338358	-0.017107
	H1387	H	0.308298	0.336440	-0.054275
	C1388	C	0.293620	0.364249	-0.004780
	C1389	C	0.291507	0.363385	-0.025422
	H1390	H	0.291548	0.368744	0.006853
	H1391	H	0.287720	0.367161	-0.030505
	C1392	C	0.309458	0.357682	0.052339
	O1393	O	0.318100	0.360336	0.057896
	N1394	N	0.301307	0.356169	0.066221
	H1395	H	0.293967	0.352229	0.060431
	C1396	C	0.294140	0.352087	-0.100398
	O1397	O	0.287584	0.353828	-0.105262
	N1398	N	0.301102	0.351143	-0.115001
	H1399	H	0.307398	0.351287	-0.109736
	C1400	C	0.332888	0.393966	0.228530
	C1401	C	0.336759	0.387431	0.229731
	C1402	C	0.346209	0.391070	0.239781
	C1403	C	0.351987	0.401611	0.248493
	C1404	C	0.348057	0.408268	0.246881
	C1405	C	0.338539	0.404307	0.236855
	H1406	H	0.332185	0.379386	0.223556
	H1407	H	0.335363	0.409201	0.235661
	C1408	C	0.361519	0.405415	0.259082
	C1409	C	0.365300	0.398685	0.261210
	C1410	C	0.374540	0.402506	0.272199
	C1411	C	0.380139	0.412818	0.280741
	C1412	C	0.376442	0.419440	0.278898
	C1413	C	0.367206	0.415909	0.268113
	H1414	H	0.377408	0.397461	0.274437
	H1415	H	0.380617	0.427285	0.286421
	C1416	C	0.354027	0.418838	0.255881
	C1417	C	0.363126	0.422471	0.265973
	H1418	H	0.351034	0.423871	0.254535
	H1419	H	0.367464	0.430440	0.272775
	C1420	C	0.350308	0.384519	0.241856
	C1421	C	0.359365	0.388131	0.252093
	H1422	H	0.345929	0.376529	0.235197
	H1423	H	0.362297	0.383068	0.253658
	C1424	C	0.322695	0.389996	0.217960
	O1425	O	0.315909	0.391365	0.226185
	N1426	N	0.321940	0.385207	0.197534
	H1427	H	0.328202	0.385068	0.190725
	C1428	C	0.389613	0.416462	0.293673
	O1429	O	0.389685	0.411631	0.307203
	N1430	N	0.398465	0.425418	0.287876
	H1431	H	0.398209	0.428698	0.275298
	C1432	C	0.346021	0.095535	0.989121
	C1433	C	0.353188	0.105766	0.996365
	C1434	C	0.357438	0.113491	0.982683
	C1435	C	0.354549	0.110752	0.961071
	C1436	C	0.347578	0.100208	0.953637
	C1437	C	0.343493	0.092745	0.967810
	H1438	H	0.355289	0.107677	1.012814
	H1439	H	0.338376	0.084708	0.962158
	C1440	C	0.358531	0.118489	0.946997
	C1441	C	0.365421	0.129072	0.954355
	C1442	C	0.369128	0.136569	0.940222
	C1443	C	0.366201	0.133725	0.919125
	C1444	C	0.359270	0.123424	0.911974
	C1445	C	0.355461	0.115706	0.925499
	H1446	H	0.374299	0.144652	0.945424
	H1447	H	0.356748	0.121438	0.895811
	C1448	C	0.344846	0.097606	0.931758
	C1449	C	0.348565	0.104998	0.918376
	H1450	H	0.339636	0.089582	0.926159
	H1451	H	0.346405	0.102972	0.901956
	C1452	C	0.364552	0.124180	0.989581
	C1453	C	0.368315	0.131579	0.976149
	H1454	H	0.366851	0.126222	1.005919
	H1455	H	0.373633	0.139594	0.981646
	C1456	C	0.341318	0.087269	1.003826
	O1457	O	0.346232	0.087039	1.017641
	N1458	N	0.330666	0.080406	1.000689
	H1459	H	0.326578	0.082499	0.992656
	C1460	C	0.370001	0.141629	0.903762
	O1461	O	0.367695	0.148222	0.905203
	N1462	N	0.376278	0.140458	0.887800
	H1463	H	0.380097	0.136902	0.891224
	C1464	C	0.354008	0.069803	0.063118
	C1465	C	0.353055	0.068372	0.084416
	C1466	C	0.353272	0.075916	0.099801
	C1467	C	0.354749	0.085255	0.093564
	C1468	C	0.355918	0.086741	0.071796
	C1469	C	0.355464	0.078917	0.056860
	H1470	H	0.352156	0.061339	0.088938
	H1471	H	0.356167	0.079838	0.040243
	C1472	C	0.355132	0.093074	0.109013
	C1473	C	0.353906	0.091541	0.130758
	C1474	C	0.354608	0.099431	0.145782
	C1475	C	0.356531	0.108763	0.139710
	C1476	C	0.357591	0.110258	0.118432
	C1477	C	0.356794	0.102502	0.102876
	H1478	H	0.353500	0.098225	0.162265
	H1479	H	0.359073	0.117566	0.114179
	C1480	C	0.357491	0.096283	0.066075
	C1481	C	0.357913	0.103774	0.080822
	H1482	H	0.358330	0.097334	0.049503
	H1483	H	0.359022	0.110865	0.076138
	C1484	C	0.352031	0.074581	0.121823
	C1485	C	0.352270	0.081987	0.136540
	H1486	H	0.350874	0.067461	0.126452
	H1487	H	0.351314	0.080836	0.153052
	C1488	C	0.353645	0.061473	0.047105
	O1489	O	0.360713	0.062788	0.035019
	N1490	N	0.344035	0.052338	0.046729
	H1491	H	0.338367	0.052016	0.056934
	C1492	C	0.359184	0.117875	0.155947
	O1493	O	0.355927	0.123636	0.155427
	N1494	N	0.366564	0.119413	0.170158
	H1495	H	0.368219	0.113764	0.170791
	C1496	C	-0.039471	0.417594	0.721681
	C1497	C	-0.031935	0.426149	0.734100
	C1498	C	-0.032578	0.435068	0.739003
	C1499	C	-0.040943	0.435439	0.730794
	C1500	C	-0.048568	0.426704	0.717985
	C1501	C	-0.047656	0.417933	0.713510
	H1502	H	-0.025535	0.425793	0.739854
	H1503	H	-0.053188	0.411467	0.703087
	C1504	C	-0.041540	0.444558	0.734905
	C1505	C	-0.033829	0.453369	0.747435
	C1506	C	-0.034379	0.462379	0.750689
	C1507	C	-0.042277	0.462832	0.741582
	C1508	C	-0.050075	0.454113	0.729963
	C1509	C	-0.049813	0.444964	0.726356
	H1510	H	-0.028609	0.469162	0.760126
	H1511	H	-0.056400	0.454455	0.723799
	C1512	C	-0.056917	0.427278	0.709897
	C1513	C	-0.057528	0.435951	0.713935
	H1514	H	-0.062751	0.420595	0.700362
	H1515	H	-0.063858	0.436252	0.707674
	C1516	C	-0.025025	0.443999	0.751875
	C1517	C	-0.025639	0.452676	0.755940
	H1518	H	-0.018748	0.443656	0.758283
	H1519	H	-0.019856	0.459334	0.765621
	C1520	C	-0.038198	0.408417	0.715242
	O1521	O	-0.029774	0.409266	0.711503
	N1522	N	-0.047478	0.398905	0.714982
	H1523	H	-0.053788	0.398348	0.723146
	C1524	C	-0.042484	0.472710	0.744331
	O1525	O	-0.041760	0.477588	0.761240
	N1526	N	-0.042995	0.475883	0.725252
	H1527	H	-0.042584	0.471799	0.711730
	C1528	C	-0.037707	0.392310	0.550747
	C1529	C	-0.029930	0.394522	0.535428
	C1530	C	-0.031910	0.394341	0.514312
	C1531	C	-0.042038	0.391777	0.508491
	C1532	C	-0.049985	0.389386	0.524202
	C1533	C	-0.047694	0.389628	0.545136
	H1534	H	-0.022244	0.396640	0.540249
	H1535	H	-0.053598	0.388050	0.557248
	C1536	C	-0.044140	0.391818	0.487213
	C1537	C	-0.036142	0.394404	0.471562
	C1538	C	-0.038295	0.394660	0.450816
	C1539	C	-0.048178	0.392359	0.445365
	C1540	C	-0.055996	0.389950	0.460651
	C1541	C	-0.054181	0.389554	0.481528
	H1542	H	-0.032193	0.396945	0.438979
	H1543	H	-0.063486	0.388514	0.456131
	C1544	C	-0.060086	0.386939	0.517913
	C1545	C	-0.062071	0.387042	0.497640
	H1546	H	-0.066118	0.385085	0.529834
	H1547	H	-0.069696	0.385272	0.493206
	C1548	C	-0.024055	0.396753	0.498149
	C1549	C	-0.026062	0.396790	0.477845
	H1550	H	-0.016394	0.398642	0.502620
	H1551	H	-0.020012	0.398699	0.465947
	C1552	C	-0.035273	0.392757	0.573305
	O1553	O	-0.027972	0.400278	0.582280
	N1554	N	-0.041866	0.383777	0.582816
	H1555	H	-0.047320	0.377403	0.574084
	C1556	C	-0.050281	0.393394	0.423533
	O1557	O	-0.053902	0.398600	0.420308
	N1558	N	-0.048015	0.387703	0.407447
	H1559	H	-0.045634	0.382944	0.411107
	C1560	C	-0.053855	0.421626	0.290656
	C1561	C	-0.061603	0.423234	0.284567
	C1562	C	-0.059705	0.433242	0.283977
	C1563	C	-0.049764	0.441888	0.290089
	C1564	C	-0.041884	0.440204	0.296349
	C1565	C	-0.044093	0.430068	0.296673
	H1566	H	-0.069176	0.416583	0.280399
	H1567	H	-0.038281	0.428776	0.302285
	C1568	C	-0.047818	0.452126	0.290535
	C1569	C	-0.055772	0.453803	0.284697
	C1570	C	-0.053840	0.463918	0.286115
	C1571	C	-0.044314	0.472297	0.293393
	C1572	C	-0.036329	0.470757	0.298284
	C1573	C	-0.037946	0.460765	0.297089
	H1574	H	-0.059787	0.465360	0.281858
	H1575	H	-0.028827	0.477367	0.302982
	C1576	C	-0.031935	0.449067	0.302413
	C1577	C	-0.030052	0.458838	0.302697
	H1578	H	-0.025918	0.447776	0.306885
	H1579	H	-0.022517	0.465410	0.307376
	C1580	C	-0.067488	0.435178	0.277713
	C1581	C	-0.065607	0.444950	0.277988
	H1582	H	-0.074977	0.428598	0.272799
	H1583	H	-0.071578	0.446258	0.273300
	C1584	C	-0.056501	0.410803	0.292928
	O1585	O	-0.064987	0.404340	0.298931
	N1586	N	-0.048610	0.408704	0.286721
	H1587	H	-0.042704	0.413297	0.277272
	C1588	C	-0.042787	0.482977	0.296031
	O1589	O	-0.044940	0.486434	0.282556
	N1590	N	-0.039254	0.488163	0.315962
	H1591	H	-0.038326	0.484371	0.326754
	C1592	C	-0.016566	0.665407	0.963986
	C1593	C	-0.019909	0.663074	0.943198
	C1594	C	-0.030537	0.657442	0.938540
	C1595	C	-0.037968	0.653935	0.955285
	C1596	C	-0.034473	0.656214	0.976475
	C1597	C	-0.023757	0.661924	0.980492
	H1598	H	-0.014158	0.665729	0.930684
	H1599	H	-0.020918	0.663797	0.996449
	C1600	C	-0.048812	0.648200	0.950835
	C1601	C	-0.052281	0.646070	0.929667
	C1602	C	-0.062970	0.640319	0.925555
	C1603	C	-0.070219	0.636471	0.941874
	C1604	C	-0.066904	0.638803	0.962692
	C1605	C	-0.056278	0.644632	0.967503
	H1606	H	-0.065640	0.638920	0.909585
	H1607	H	-0.072714	0.635958	0.975065
	C1608	C	-0.042182	0.652642	0.992953
	C1609	C	-0.052535	0.647111	0.988700
	H1610	H	-0.039512	0.654614	1.009047
	H1611	H	-0.058207	0.644566	1.001370
	C1612	C	-0.034264	0.655152	0.917369
	C1613	C	-0.044610	0.649795	0.913156
	H1614	H	-0.028584	0.657856	0.904744
	H1615	H	-0.047272	0.648168	0.897114
	C1616	C	-0.005094	0.671846	0.968259
	O1617	O	-0.000166	0.668624	0.975131
	N1618	N	-0.000983	0.682070	0.964599
	H1619	H	-0.005758	0.684072	0.958850
	C1620	C	-0.081649	0.629561	0.937115
	O1621	O	-0.088375	0.630450	0.946990
	N1622	N	-0.083562	0.621520	0.921520
	H1623	H	-0.077491	0.621657	0.913077
	C1624	C	-0.032045	0.674244	0.075345
	C1625	C	-0.040424	0.664643	0.079738
	C1626	C	-0.042772	0.662123	0.100511
	C1627	C	-0.036405	0.669427	0.117183
	C1628	C	-0.027643	0.679062	0.112450
	C1629	C	-0.025552	0.681263	0.091515
	H1630	H	-0.045193	0.659225	0.066883
	H1631	H	-0.018784	0.688474	0.087796
	C1632	C	-0.038860	0.667206	0.138465
	C1633	C	-0.047736	0.657680	0.143353
	C1634	C	-0.050309	0.655864	0.164484
	C1635	C	-0.044175	0.663225	0.180703
	C1636	C	-0.035456	0.672535	0.175935
	C1637	C	-0.032637	0.674655	0.155087
	H1638	H	-0.057236	0.648787	0.168182
	H1639	H	-0.030933	0.678217	0.188734
	C1640	C	-0.021299	0.686272	0.129488
	C1641	C	-0.023699	0.684186	0.149791
	H1642	H	-0.014555	0.693505	0.125806
	H1643	H	-0.018919	0.689719	0.162506
	C1644	C	-0.051427	0.652420	0.105840
	C1645	C	-0.053791	0.650323	0.126174
	H1646	H	-0.056085	0.646745	0.093172
	H1647	H	-0.060309	0.642945	0.129868
	C1648	C	-0.029514	0.677055	0.053141
	O1649	O	-0.029740	0.671060	0.038495
	N1650	N	-0.027616	0.686939	0.051353
	H1651	H	-0.029928	0.690460	0.063266
	C1652	C	-0.047061	0.662032	0.203573
	O1653	O	-0.045720	0.669337	0.216007
	N1654	N	-0.050512	0.652314	0.209880
	H1655	H	-0.051935	0.646276	0.198941
	C1656	C	0.636220	0.624436	0.779213
	C1657	C	0.642730	0.622976	0.764282
	C1658	C	0.638740	0.614164	0.749623
	C1659	C	0.627910	0.606595	0.750191
	C1660	C	0.621323	0.608130	0.765573
	C1661	C	0.625625	0.617029	0.780003
	H1662	H	0.650899	0.628877	0.763977
	H1663	H	0.620708	0.618359	0.791611
	C1664	C	0.623682	0.597607	0.735366
	C1665	C	0.630241	0.596108	0.719865
	C1666	C	0.625903	0.587246	0.705341
	C1667	C	0.615303	0.579856	0.705949
	C1668	C	0.608786	0.581405	0.720780
	C1669	C	0.612823	0.590134	0.735665
	H1670	H	0.630744	0.586056	0.693276
	H1671	H	0.600492	0.575946	0.720462
	C1672	C	0.610421	0.600437	0.765575
	C1673	C	0.606377	0.591902	0.751326
	H1674	H	0.605434	0.601644	0.777207
	H1675	H	0.598133	0.586233	0.751508
	C1676	C	0.645165	0.612423	0.733875
	C1677	C	0.641126	0.603846	0.719728
	H1678	H	0.653375	0.618190	0.733462
	H1679	H	0.646077	0.602685	0.707917
	C1680	C	0.640766	0.633822	0.795073
	O1681	O	0.645113	0.642523	0.790091
	N1682	N	0.639809	0.631621	0.815844
	H1683	H	0.636580	0.624171	0.818836
	C1684	C	0.610927	0.570707	0.689394
	O1685	O	0.614099	0.571337	0.671390
	N1686	N	0.603317	0.561392	0.696643
	H1687	H	0.601916	0.561003	0.712321
	C1688	C	0.666676	0.646805	-0.017795
	C1689	C	0.668135	0.638532	-0.016471
	C1690	C	0.670472	0.636791	0.002766
	C1691	C	0.671599	0.643705	0.021068
	C1692	C	0.670476	0.652353	0.019434
	C1693	C	0.668099	0.653802	-0.000108
	H1694	H	0.667499	0.633441	-0.030484
	H1695	H	0.667307	0.660372	-0.001708
	C1696	C	0.673803	0.641958	0.040837
	C1697	C	0.674815	0.633241	0.042417
	C1698	C	0.676816	0.631548	0.062032
	C1699	C	0.677900	0.638323	0.079927
	C1700	C	0.676769	0.646788	0.078610
	C1701	C	0.674808	0.648785	0.059236
	H1702	H	0.677335	0.624817	0.063534
	H1703	H	0.677395	0.651764	0.092836
	C1704	C	0.671741	0.659213	0.038144
	C1705	C	0.673770	0.657507	0.057053
	H1706	H	0.670999	0.665828	0.036798
	H1707	H	0.674675	0.662758	0.070971
	C1708	C	0.671713	0.628175	0.004787
	C1709	C	0.673739	0.626465	0.023669
	H1710	H	0.670930	0.622992	-0.009169
	H1711	H	0.674591	0.619905	0.024942
	C1712	C	0.664054	0.648457	-0.038570
	O1713	O	0.668566	0.656793	-0.045317
	N1714	N	0.655827	0.639554	-0.048908
	H1715	H	0.652250	0.632801	-0.042316
	C1716	C	0.679745	0.636003	0.100730
	O1717	O	0.674015	0.634805	0.115778
	N1718	N	0.688775	0.635544	0.100938
	H1719	H	0.693638	0.637574	0.088266
	C1720	C	0.678984	0.587476	0.227609
	C1721	C	0.677034	0.593540	0.243412
	C1722	C	0.669154	0.588936	0.258422
	C1723	C	0.662963	0.577943	0.257218
	C1724	C	0.664924	0.571816	0.240863
	C1725	C	0.672934	0.576720	0.226271
	H1726	H	0.681918	0.601866	0.244417
	H1727	H	0.674597	0.572217	0.213812
	C1728	C	0.654940	0.573112	0.272364
	C1729	C	0.653088	0.579238	0.288913
	C1730	C	0.645232	0.574333	0.303782
	C1731	C	0.639289	0.563576	0.302633
	C1732	C	0.640955	0.557514	0.286324
	C1733	C	0.648776	0.562119	0.271208
	H1734	H	0.643782	0.578833	0.316620
	H1735	H	0.636375	0.549185	0.285873
	C1736	C	0.658556	0.560761	0.240041
	C1737	C	0.650872	0.556151	0.254440
	H1738	H	0.660068	0.556146	0.227584
	H1739	H	0.646194	0.547811	0.253596
	C1740	C	0.667044	0.594904	0.275165
	C1741	C	0.659420	0.590294	0.289672
	H1742	H	0.671754	0.603244	0.276070
	H1743	H	0.657973	0.594908	0.302244
	C1744	C	0.687341	0.592460	0.211381
	O1745	O	0.694038	0.590287	0.207360
	N1746	N	0.686305	0.599230	0.200443
	H1747	H	0.680086	0.600161	0.203488
	C1748	C	0.630801	0.558587	0.318621
	O1749	O	0.632356	0.560644	0.337376
	N1750	N	0.620924	0.551981	0.310078
	H1751	H	0.619992	0.551161	0.294288
	C1752	C	0.575254	0.048299	0.443266
	C1753	C	0.569763	0.041273	0.457981
	C1754	C	0.571676	0.044321	0.479544
	C1755	C	0.579389	0.054715	0.486397
	C1756	C	0.585078	0.061803	0.471219
	C1757	C	0.582961	0.058438	0.449795
	H1758	H	0.563803	0.033480	0.452460
	H1759	H	0.587077	0.063786	0.438146
	C1760	C	0.581231	0.058056	0.508273
	C1761	C	0.575399	0.051024	0.523471
	C1762	C	0.577106	0.054542	0.544935
	C1763	C	0.584462	0.064814	0.551505
	C1764	C	0.590119	0.071761	0.536735
	C1765	C	0.588700	0.068537	0.515137
	H1766	H	0.572487	0.049376	0.556610
	H1767	H	0.595532	0.079749	0.542282
	C1768	C	0.592724	0.072254	0.478602
	C1769	C	0.594424	0.075461	0.499479
	H1770	H	0.597072	0.077605	0.467060
	H1771	H	0.600139	0.083387	0.504775
	C1772	C	0.566058	0.037363	0.495201
	C1773	C	0.567824	0.040548	0.516075
	H1774	H	0.560264	0.029465	0.489918
	H1775	H	0.563454	0.035207	0.527622
	C1776	C	0.572908	0.044850	0.420299
	O1777	O	0.564267	0.041215	0.413328
	N1778	N	0.581353	0.045879	0.407825
	H1779	H	0.588248	0.048296	0.414662
	C1780	C	0.585573	0.068743	0.574456
	O1781	O	0.584563	0.076002	0.581249
	N1782	N	0.588146	0.063601	0.587134
	H1783	H	0.589598	0.058028	0.580470
	C1784	C	0.558899	0.081107	0.713141
	C1785	C	0.559186	0.090001	0.722979
	C1786	C	0.550414	0.091032	0.723332
	C1787	C	0.541150	0.082945	0.713105
	C1788	C	0.540909	0.073888	0.703038
	C1789	C	0.549840	0.073152	0.703097
	H1790	H	0.566360	0.096162	0.730248
	H1791	H	0.549819	0.066495	0.694665
	C1792	C	0.532302	0.084034	0.712411
	C1793	C	0.532609	0.093180	0.722116
	C1794	C	0.523962	0.094262	0.720532
	C1795	C	0.515169	0.086581	0.709377
	C1796	C	0.514642	0.077421	0.700558
	C1797	C	0.523118	0.076035	0.701786
	H1798	H	0.524040	0.101152	0.727738
	H1799	H	0.507587	0.071337	0.692799
	C1800	C	0.531466	0.065860	0.692854
	C1801	C	0.522998	0.066865	0.692318
	H1802	H	0.531259	0.058936	0.685458
	H1803	H	0.515969	0.060747	0.684515
	C1804	C	0.550414	0.100059	0.733370
	C1805	C	0.541941	0.101064	0.732853
	H1806	H	0.557411	0.106120	0.741367
	H1807	H	0.542100	0.107938	0.740432
	C1808	C	0.568739	0.080694	0.711213
	O1809	O	0.577209	0.088277	0.708971
	N1810	N	0.567370	0.071024	0.713080
	H1811	H	0.560877	0.065617	0.720087
	C1812	C	0.506246	0.088238	0.707050
	O1813	O	0.502565	0.091245	0.721666
	N1814	N	0.503088	0.086527	0.686273
	H1815	H	0.507160	0.084824	0.674750
	C1816	C	0.565737	0.061376	0.261215
	C1817	C	0.558230	0.057355	0.245555
	C1818	C	0.551867	0.061504	0.244142
	C1819	C	0.553025	0.069832	0.259114
	C1820	C	0.560801	0.073976	0.274911
	C1821	C	0.567028	0.069644	0.275718
	H1822	H	0.557456	0.051001	0.234426
	H1823	H	0.573001	0.072791	0.287549
	C1824	C	0.546387	0.073912	0.258464
	C1825	C	0.538554	0.069749	0.242779
	C1826	C	0.531895	0.073673	0.242815
	C1827	C	0.532791	0.081495	0.258213
	C1828	C	0.540686	0.085846	0.273107
	C1829	C	0.547501	0.082166	0.273590
	H1830	H	0.526082	0.070705	0.230714
	H1831	H	0.541422	0.092111	0.284487
	C1832	C	0.561881	0.082441	0.289664
	C1833	C	0.555554	0.086336	0.289031
	H1834	H	0.567888	0.085670	0.301444
	H1835	H	0.556446	0.092697	0.300284
	C1836	C	0.544048	0.057603	0.228262
	C1837	C	0.537747	0.061534	0.227577
	H1838	H	0.543301	0.051394	0.216715
	H1839	H	0.531912	0.058472	0.215476
	C1840	C	0.571893	0.056285	0.263621
	O1841	O	0.576632	0.054513	0.249239
	N1842	N	0.571350	0.053622	0.283867
	H1843	H	0.566305	0.054360	0.294382
	C1844	C	0.525587	0.085673	0.259248
	O1845	O	0.528717	0.094842	0.261916
	N1846	N	0.515038	0.078133	0.257725
	H1847	H	0.512707	0.070532	0.254669
	C1848	C	0.438556	0.438792	0.656790
	C1849	C	0.428834	0.436088	0.666851
	O1850	O	0.427759	0.435899	0.687617
	C1851	C	0.419682	0.433165	0.655751
	C1852	C	0.420926	0.433891	0.633700
	O1853	O	0.413554	0.433419	0.622439
	C1854	C	0.430036	0.435448	0.622288
	C1855	C	0.438383	0.437072	0.634477
	O1856	O	0.446489	0.436691	0.625458
	H1857	H	0.407797	0.432634	0.632882
	H1858	H	0.444956	0.435009	0.609756
	H1859	H	0.434918	0.437992	0.692843
	N1860	N	0.450305	0.446231	0.686524
	C1861	C	0.448680	0.443596	0.666576
	H1862	H	0.455211	0.445223	0.655883
	N1863	N	0.401153	0.426296	0.659149
	C1864	C	0.409989	0.429522	0.667664
	H1865	H	0.410441	0.429551	0.684521
	N1866	N	0.438583	0.438473	0.588337
	C1867	C	0.430410	0.436255	0.599838
	H1868	H	0.423362	0.434905	0.592872
	C1869	C	0.443505	0.457923	0.306842
	C1870	C	0.434128	0.450958	0.295846
	O1871	O	0.433240	0.451848	0.275817
	C1872	C	0.425134	0.443148	0.305389
	C1873	C	0.426119	0.442449	0.326929
	O1874	O	0.419187	0.434140	0.336172
	C1875	C	0.434537	0.450168	0.339756
	C1876	C	0.442883	0.458136	0.329104
	O1877	O	0.450602	0.466436	0.339582
	H1878	H	0.413989	0.429300	0.324742
	H1879	H	0.448869	0.465580	0.355088
	H1880	H	0.440252	0.458134	0.272409
	N1881	N	0.455857	0.463660	0.277753
	C1882	C	0.453663	0.464379	0.297606
	H1883	H	0.459779	0.469847	0.308591
	N1884	N	0.406925	0.430341	0.300681
	C1885	C	0.415666	0.437157	0.293078
	H1886	H	0.416192	0.438760	0.276852
	N1887	N	0.441663	0.454881	0.374752
	C1888	C	0.434193	0.448774	0.361889
	H1889	H	0.427160	0.442224	0.367436
	C1890	C	0.380821	0.118215	0.861521
	C1891	C	0.388642	0.118599	0.847059
	O1892	O	0.391261	0.111414	0.845987
	C1893	C	0.393548	0.126035	0.832328
	C1894	C	0.391474	0.134281	0.835185
	O1895	O	0.396790	0.142564	0.824816
	C1896	C	0.383809	0.134339	0.849555
	C1897	C	0.377392	0.125034	0.858617
	O1898	O	0.367536	0.122118	0.863514
	H1899	H	0.401994	0.141436	0.815562
	H1900	H	0.366856	0.128012	0.858887
	H1901	H	0.386626	0.106774	0.857189
	N1902	N	0.381524	0.108613	0.888062
	C1903	C	0.377475	0.113322	0.880870
	H1904	H	0.371586	0.114379	0.889841
	N1905	N	0.404533	0.130491	0.801331
	C1906	C	0.400118	0.124570	0.816129
	H1907	H	0.401110	0.118017	0.816803
	N1908	N	0.379685	0.146413	0.871572
	C1909	C	0.383558	0.143814	0.854889
	H1910	H	0.387150	0.149441	0.843455
	C1911	C	0.389295	0.118872	0.142151
	C1912	C	0.395691	0.116747	0.153395
	O1913	O	0.398740	0.110290	0.144623
	C1914	C	0.399245	0.121245	0.174289
	C1915	C	0.395125	0.127277	0.184703
	O1916	O	0.398362	0.132526	0.203522
	C1917	C	0.387344	0.128155	0.175584
	C1918	C	0.386129	0.125420	0.153592
	O1919	O	0.382309	0.129567	0.142526
	H1920	H	0.404041	0.131339	0.207671
	H1921	H	0.380960	0.134296	0.153617
	H1922	H	0.395534	0.107831	0.129997
	N1923	N	0.387824	0.109391	0.107578
	C1924	C	0.385740	0.115355	0.120547
	H1925	H	0.380957	0.118096	0.115283
	N1926	N	0.409179	0.121617	0.202690
	C1927	C	0.406000	0.118589	0.183534
	H1928	H	0.408306	0.113746	0.173491
	N1929	N	0.371133	0.127770	0.185027
	C1930	C	0.380835	0.131176	0.188767
	H1931	H	0.384435	0.136638	0.202588
	C1932	C	-0.044494	0.495576	0.701400
	C1933	C	-0.044194	0.503661	0.715837
	O1934	O	-0.044131	0.503446	0.736509
	C1935	C	-0.044037	0.512350	0.709434
	C1936	C	-0.042653	0.513397	0.687519
	O1937	O	-0.039936	0.522295	0.680331
	C1938	C	-0.043652	0.505361	0.672053
	C1939	C	-0.045451	0.496242	0.679850
	O1940	O	-0.048587	0.487506	0.667177
	H1941	H	-0.039231	0.527228	0.693366
	H1942	H	-0.049295	0.489123	0.652693
	H1943	H	-0.044285	0.496797	0.738227
	N1944	N	-0.043380	0.484635	0.724456
	C1945	C	-0.044093	0.486667	0.705912
	H1946	H	-0.044344	0.481471	0.692267
	N1947	N	-0.046798	0.526520	0.720899
	C1948	C	-0.045984	0.518928	0.725320
	H1949	H	-0.047015	0.517005	0.741411
	N1950	N	-0.042401	0.500679	0.635054
	C1951	C	-0.042196	0.507302	0.650064
	H1952	H	-0.041023	0.514649	0.646639
	C1953	C	-0.035178	0.510704	0.351261
	C1954	C	-0.038969	0.516498	0.343515
	O1955	O	-0.040909	0.515459	0.323144
	C1956	C	-0.040601	0.523874	0.356532
	C1957	C	-0.039236	0.524425	0.378496
	O1958	O	-0.042852	0.529107	0.392572
	C1959	C	-0.034315	0.519836	0.386977
	C1960	C	-0.031532	0.513813	0.372264
	O1961	O	-0.024933	0.511045	0.377286
	H1962	H	-0.046419	0.531616	0.384075
	H1963	H	-0.022774	0.514275	0.392385
	H1964	H	-0.039123	0.510077	0.316418
	N1965	N	-0.039050	0.497217	0.322388
	C1966	C	-0.035303	0.501567	0.340875
	H1967	H	-0.032270	0.498151	0.350032
	N1968	N	-0.044426	0.537459	0.356925
	C1969	C	-0.043212	0.530295	0.346514
	H1970	H	-0.044065	0.528849	0.329517
	N1971	N	-0.030164	0.515895	0.418802
	C1972	C	-0.033701	0.520549	0.409719
	H1973	H	-0.036462	0.525195	0.419035
	C1974	C	-0.071221	0.606318	0.933839
	C1975	C	-0.069416	0.600239	0.917145
	O1976	O	-0.060529	0.600222	0.915868
	C1977	C	-0.076727	0.593905	0.900873
	C1978	C	-0.085722	0.594785	0.900540
	O1979	O	-0.093358	0.588969	0.886860
	C1980	C	-0.087153	0.601913	0.914792
	C1981	C	-0.080694	0.606139	0.932723
	O1982	O	-0.083801	0.609681	0.950151
	H1983	H	-0.091289	0.584226	0.878055
	H1984	H	-0.090933	0.608419	0.946296
	H1985	H	-0.056243	0.605106	0.928392
	N1986	N	-0.056119	0.613016	0.955998
	C1987	C	-0.064807	0.612292	0.952139
	H1988	H	-0.067764	0.616291	0.963149
	N1989	N	-0.079450	0.582310	0.869166
	C1990	C	-0.073926	0.587799	0.885457
	H1991	H	-0.066689	0.588103	0.888077
	N1992	N	-0.093343	0.613914	0.915087
	C1993	C	-0.094560	0.604814	0.910015
	H1994	H	-0.101558	0.598880	0.901652
	C1995	C	-0.036889	0.635244	0.204112
	C1996	C	-0.039229	0.626416	0.213932
	O1997	O	-0.035398	0.620480	0.206057
	C1998	C	-0.045120	0.623738	0.232901
	C1999	C	-0.049652	0.629814	0.240456
	O2000	O	-0.056853	0.626980	0.255609
	C2001	C	-0.047087	0.639060	0.232048
	C2002	C	-0.039203	0.642232	0.216415
	O2003	O	-0.033067	0.652201	0.213903
	H2004	H	-0.057990	0.620216	0.259586
	H2005	H	-0.035649	0.655777	0.225471
	H2006	H	-0.031144	0.623960	0.193273
	N2007	N	-0.032516	0.630814	0.168846
	C2008	C	-0.033689	0.637205	0.182455
	H2009	H	-0.032713	0.644328	0.178034
	N2010	N	-0.050597	0.612579	0.260516
	C2011	C	-0.045859	0.615311	0.242832
	H2012	H	-0.042111	0.611331	0.234650
	N2013	N	-0.054178	0.650406	0.229852
	C2014	C	-0.053048	0.644004	0.239119
	H2015	H	-0.057054	0.642096	0.254219
	C2016	C	0.568483	0.517180	0.676068
	C2017	C	0.575777	0.526839	0.686823
	O2018	O	0.574999	0.528743	0.707554
	C2019	C	0.584447	0.534829	0.676826
	C2020	C	0.585782	0.532526	0.654956
	O2021	O	0.593601	0.539434	0.643953
	C2022	C	0.579169	0.522837	0.643349
	C2023	C	0.571059	0.515165	0.654937
	O2024	O	0.565597	0.505340	0.646705
	H2025	H	0.597622	0.545823	0.654270
	H2026	H	0.568616	0.505101	0.632030
	H2027	H	0.568654	0.522172	0.712087
	N2028	N	0.554531	0.510557	0.702012
	C2029	C	0.558343	0.509557	0.683721
	H2030	H	0.553702	0.502798	0.672714
	N2031	N	0.598372	0.552721	0.682747
	C2032	C	0.590648	0.544573	0.689756
	H2033	H	0.588322	0.544875	0.706190
	N2034	N	0.574300	0.513850	0.608516
	C2035	C	0.580566	0.521926	0.620607
	H2036	H	0.587085	0.528536	0.613975
	C2037	C	0.575010	0.522448	0.324970
	C2038	C	0.584516	0.530029	0.316317
	O2039	O	0.584855	0.532696	0.297174
	C2040	C	0.594196	0.535033	0.326937
	C2041	C	0.593789	0.532725	0.347916
	O2042	O	0.601852	0.538449	0.360760
	C2043	C	0.584863	0.524535	0.356829
	C2044	C	0.575866	0.519092	0.343993
	O2045	O	0.567714	0.510154	0.348830
	H2046	H	0.607379	0.544073	0.352252
	H2047	H	0.569709	0.508641	0.362187
	H2048	H	0.577407	0.528308	0.291825
	N2049	N	0.562347	0.520429	0.300380
	C2050	C	0.564553	0.517974	0.316993
	H2051	H	0.558304	0.512335	0.326234
	N2052	N	0.612793	0.546169	0.322816
	C2053	C	0.603532	0.541629	0.315264
	H2054	H	0.602423	0.542547	0.299295
	N2055	N	0.577546	0.516222	0.388444
	C2056	C	0.585422	0.522977	0.378507
	H2057	H	0.592916	0.527789	0.386202
	C2058	C	0.485889	0.088698	0.652759
	C2059	C	0.480962	0.093916	0.663256
	O2060	O	0.480808	0.095459	0.684172
	C2061	C	0.475700	0.097522	0.652535
	C2062	C	0.476282	0.096336	0.630170
	O2063	O	0.473514	0.101202	0.618628
	C2064	C	0.480044	0.090247	0.618646
	C2065	C	0.484023	0.085895	0.630832
	O2066	O	0.485885	0.078519	0.622309
	H2067	H	0.471347	0.105407	0.629123
	H2068	H	0.483755	0.077133	0.606962
	H2069	H	0.484698	0.092253	0.689120
	N2070	N	0.495887	0.088802	0.681008
	C2071	C	0.492983	0.086374	0.661609
	H2072	H	0.496106	0.082524	0.650622
	N2073	N	0.464690	0.104929	0.657297
	C2074	C	0.470078	0.101783	0.665214
	H2075	H	0.470527	0.102190	0.682191
	N2076	N	0.484400	0.085112	0.584032
	C2077	C	0.480431	0.089800	0.595808
	H2078	H	0.477164	0.093649	0.588804
	C2079	C	0.500700	0.086806	0.294326
	C2080	C	0.492686	0.087149	0.284705
	O2081	O	0.493012	0.087793	0.264115
	C2082	C	0.484312	0.087360	0.296156
	C2083	C	0.484115	0.086739	0.318153
	O2084	O	0.475505	0.084325	0.329537
	C2085	C	0.492715	0.088212	0.329266
	C2086	C	0.501170	0.088801	0.316611
	O2087	O	0.510180	0.091468	0.325052
	H2088	H	0.470088	0.083151	0.319104
	H2089	H	0.509365	0.092935	0.340792
	H2090	H	0.499789	0.088039	0.259186
	N2091	N	0.507384	0.080285	0.264391
	C2092	C	0.508032	0.084125	0.283867
	H2093	H	0.514184	0.085130	0.293659
	N2094	N	0.469861	0.089980	0.294501
	C2095	C	0.477265	0.089009	0.285115
	H2096	H	0.478590	0.089568	0.268311
	N2097	N	0.498737	0.088786	0.363606
	C2098	C	0.491732	0.088160	0.352004
	H2099	H	0.484686	0.087634	0.359141
	C2100	C	0.445832	0.442593	0.532462
	C2101	C	0.445887	0.436271	0.514652
	C2102	C	0.445817	0.438783	0.494425
	C2103	C	0.445588	0.447872	0.492128
	C2104	C	0.445413	0.454231	0.510414
	C2105	C	0.445479	0.451442	0.530362
	H2106	H	0.446226	0.429496	0.516741
	H2107	H	0.445574	0.456332	0.544317
	C2108	C	0.445732	0.450683	0.471713
	C2109	C	0.446105	0.444430	0.453424
	C2110	C	0.446485	0.447457	0.433485
	C2111	C	0.446424	0.456461	0.431396
	C2112	C	0.446206	0.462686	0.449229
	C2113	C	0.445778	0.459915	0.469434
	H2114	H	0.447131	0.442958	0.419555
	H2115	H	0.446497	0.469789	0.447176
	C2116	C	0.445292	0.463399	0.507613
	C2117	C	0.445485	0.466109	0.488135
	H2118	H	0.445125	0.468198	0.521500
	H2119	H	0.445473	0.473082	0.486306
	C2120	C	0.446047	0.432560	0.475716
	C2121	C	0.446195	0.435247	0.456234
	H2122	H	0.446182	0.425649	0.477536
	H2123	H	0.446439	0.430489	0.442347
	C2124	C	0.445982	0.439693	0.553898
	O2125	O	0.452292	0.437608	0.558661
	N2126	N	0.438129	0.439298	0.567572
	H2127	H	0.432504	0.440233	0.562215
	C2128	C	0.447590	0.460086	0.410108
	O2129	O	0.454027	0.468808	0.406510
	N2130	N	0.440512	0.452747	0.395115
	H2131	H	0.434768	0.445817	0.399382
	C2132	C	0.528712	0.494940	0.726968
	C2133	C	0.521932	0.498173	0.735690
	C2134	C	0.511129	0.491416	0.734999
	C2135	C	0.507054	0.481151	0.724958
	C2136	C	0.514028	0.477838	0.716412
	C2137	C	0.524785	0.484823	0.717525
	H2138	H	0.525182	0.506030	0.743045
	H2139	H	0.530134	0.482361	0.711172
	C2140	C	0.496095	0.474319	0.723129
	C2141	C	0.489126	0.477681	0.731443
	C2142	C	0.478391	0.470986	0.728692
	C2143	C	0.474499	0.461185	0.717699
	C2144	C	0.481234	0.457673	0.710247
	C2145	C	0.492022	0.464117	0.712734
	H2146	H	0.472960	0.473379	0.734858
	H2147	H	0.478039	0.449882	0.702589
	C2148	C	0.509691	0.467410	0.706611
	C2149	C	0.499233	0.460889	0.704866
	H2150	H	0.514993	0.464842	0.700516
	H2151	H	0.496119	0.453074	0.697374
	C2152	C	0.503913	0.494490	0.743723
	C2153	C	0.493453	0.487953	0.742078
	H2154	H	0.507037	0.502219	0.751699
	H2155	H	0.488132	0.490408	0.748697
	C2156	C	0.540169	0.502796	0.726054
	O2157	O	0.545004	0.508538	0.741223
	N2158	N	0.544571	0.502956	0.706066
	H2159	H	0.539822	0.498441	0.693836
	C2160	C	0.462970	0.454451	0.714069
	O2161	O	0.456576	0.452525	0.728088
	N2162	N	0.460433	0.451229	0.692870
	H2163	H	0.466289	0.453677	0.682029
	C2164	C	0.537282	0.512934	0.276571
	C2165	C	0.531847	0.506265	0.258997
	C2166	C	0.520960	0.501249	0.258319
	C2167	C	0.515422	0.502917	0.275959
	C2168	C	0.521046	0.509823	0.293771
	C2169	C	0.531919	0.514706	0.293794
	H2170	H	0.536210	0.505098	0.245813
	H2171	H	0.536261	0.520024	0.307164
	C2172	C	0.504344	0.497654	0.275883
	C2173	C	0.498684	0.490699	0.258146
	C2174	C	0.487767	0.485393	0.258623
	C2175	C	0.482432	0.486779	0.276370
	C2176	C	0.487938	0.493841	0.293453
	C2177	C	0.498833	0.499292	0.293598
	H2178	H	0.483422	0.480273	0.245073
	H2179	H	0.483626	0.495008	0.306755
	C2180	C	0.515283	0.511453	0.311237
	C2181	C	0.504717	0.506447	0.311147
	H2182	H	0.519576	0.516802	0.324616
	H2183	H	0.500483	0.507746	0.324433
	C2184	C	0.515062	0.494336	0.240525
	C2185	C	0.504488	0.489345	0.240420
	H2186	H	0.519296	0.493201	0.227044
	H2187	H	0.500209	0.484175	0.226843
	C2188	C	0.548881	0.517636	0.277690
	O2189	O	0.554814	0.522397	0.264057
	N2190	N	0.552031	0.515718	0.295634
	H2191	H	0.546500	0.510790	0.305245
	C2192	C	0.470739	0.481036	0.277667
	O2193	O	0.465932	0.485315	0.283592
	N2194	N	0.465970	0.470385	0.272253
	H2195	H	0.470219	0.467130	0.266506
	C2196	C	0.378910	0.110835	-0.053206
	C2197	C	0.383749	0.119215	-0.037813
	C2198	C	0.384427	0.117789	-0.017009
	C2199	C	0.380008	0.107567	-0.011396
	C2200	C	0.374653	0.098987	-0.026895
	C2201	C	0.374054	0.100759	-0.047571
	H2202	H	0.387203	0.126969	-0.042242
	H2203	H	0.369757	0.094246	-0.059146
	C2204	C	0.381159	0.105987	0.009417
	C2205	C	0.386694	0.114632	0.024679
	C2206	C	0.388118	0.112964	0.044802
	C2207	C	0.384202	0.102970	0.050103
	C2208	C	0.378936	0.094472	0.035145
	C2209	C	0.377185	0.095798	0.014889
	H2210	H	0.392602	0.119506	0.056231
	H2211	H	0.376312	0.086829	0.039405
	C2212	C	0.370270	0.088786	-0.020615
	C2213	C	0.371545	0.087278	-0.000853
	H2214	H	0.365986	0.082224	-0.032138
	H2215	H	0.368290	0.079534	0.003518
	C2216	C	0.389641	0.126338	-0.001091
	C2217	C	0.390725	0.124837	0.018760
	H2218	H	0.392790	0.134063	-0.005421
	H2219	H	0.394772	0.131363	0.030504
	C2220	C	0.379103	0.113377	-0.075259
	O2221	O	0.379886	0.121442	-0.078432
	N2222	N	0.379077	0.106264	-0.091540
	H2223	H	0.380066	0.100499	-0.088049
	C2224	C	0.386427	0.101729	0.071719
	O2225	O	0.390030	0.096507	0.074806
	N2226	N	0.383984	0.107309	0.087682
	H2227	H	0.379366	0.109953	0.084072
	C2228	C	0.420844	0.130984	0.754339
	C2229	C	0.430077	0.138620	0.745910
	C2230	C	0.435947	0.136026	0.731161
	C2231	C	0.432495	0.125405	0.724957
	C2232	C	0.423117	0.117627	0.733783
	C2233	C	0.417421	0.120552	0.748366
	H2234	H	0.432543	0.146652	0.750648
	H2235	H	0.410146	0.114663	0.754570
	C2236	C	0.438293	0.122593	0.709834
	C2237	C	0.447559	0.130388	0.700716
	C2238	C	0.453060	0.127456	0.685630
	C2239	C	0.449539	0.117044	0.679405
	C2240	C	0.440574	0.109356	0.688499
	C2241	C	0.434803	0.111966	0.703521
	H2242	H	0.460024	0.133243	0.678284
	H2243	H	0.437920	0.101331	0.683260
	C2244	C	0.419824	0.106984	0.727192
	C2245	C	0.425390	0.104296	0.712861
	H2246	H	0.412717	0.101083	0.733917
	H2247	H	0.422757	0.096239	0.708033
	C2248	C	0.445380	0.143708	0.721903
	C2249	C	0.450889	0.141028	0.707402
	H2250	H	0.447977	0.151762	0.726687
	H2251	H	0.457942	0.146920	0.700500
	C2252	C	0.414916	0.134309	0.770128
	O2253	O	0.414207	0.141776	0.768487
	N2254	N	0.410478	0.128324	0.786894
	H2255	H	0.412345	0.122983	0.789086
	C2256	C	0.455726	0.114195	0.663435
	O2257	O	0.457593	0.116994	0.645978
	N2258	N	0.459696	0.108689	0.670875
	H2259	H	0.458390	0.107112	0.686082
	C2260	C	0.425434	0.117889	0.237201
	C2261	C	0.419875	0.107280	0.238935
	C2262	C	0.424624	0.102547	0.246883
	C2263	C	0.435297	0.108631	0.252860
	C2264	C	0.440965	0.119417	0.250640
	C2265	C	0.435908	0.123867	0.242788
	H2266	H	0.411708	0.102792	0.234920
	H2267	H	0.440033	0.132066	0.241239
	C2268	C	0.440197	0.104018	0.261448
	C2269	C	0.434435	0.093301	0.264307
	C2270	C	0.439293	0.088996	0.273486
	C2271	C	0.449706	0.095016	0.279505
	C2272	C	0.455389	0.105532	0.276868
	C2273	C	0.450805	0.110149	0.267845
	H2274	H	0.434974	0.080945	0.276325
	H2275	H	0.463308	0.110202	0.282481
	C2276	C	0.451695	0.125360	0.256862
	C2277	C	0.456372	0.120957	0.265039
	H2278	H	0.455982	0.133529	0.255006
	H2279	H	0.464438	0.125588	0.269787
	C2280	C	0.419085	0.091720	0.249517
	C2281	C	0.423739	0.087335	0.257854
	H2282	H	0.411003	0.087100	0.244879
	H2283	H	0.419424	0.079187	0.259905
	C2284	C	0.420258	0.122987	0.229144
	O2285	O	0.420857	0.130778	0.238231
	N2286	N	0.415286	0.118449	0.209851
	H2287	H	0.415797	0.112486	0.201962
	C2288	C	0.454409	0.090371	0.290911
	O2289	O	0.449937	0.085173	0.305240
	N2290	N	0.463953	0.091916	0.282826
	H2291	H	0.466941	0.095539	0.269630
	C2292	C	-0.040854	0.498664	0.576845
	C2293	C	-0.048532	0.494320	0.561487
	C2294	C	-0.046105	0.497114	0.540951
	C2295	C	-0.035654	0.504563	0.535827
	C2296	C	-0.027878	0.509099	0.551701
	C2297	C	-0.030633	0.506110	0.572086
	H2298	H	-0.056376	0.488529	0.565586
	H2299	H	-0.024753	0.509318	0.584120
	C2300	C	-0.032957	0.507260	0.514869
	C2301	C	-0.040694	0.502536	0.498909
	C2302	C	-0.037823	0.505034	0.478242
	C2303	C	-0.027518	0.512129	0.473188
	C2304	C	-0.019884	0.516703	0.488672
	C2305	C	-0.022442	0.514453	0.509556
	H2306	H	-0.043562	0.501196	0.465895
	H2307	H	-0.011902	0.521919	0.484190
	C2308	C	-0.017396	0.516504	0.545985
	C2309	C	-0.014810	0.519029	0.525952
	H2310	H	-0.011513	0.519992	0.558064
	H2311	H	-0.006855	0.524547	0.521886
	C2312	C	-0.053774	0.492638	0.524640
	C2313	C	-0.051201	0.495209	0.504645
	H2314	H	-0.061708	0.487045	0.528665
	H2315	H	-0.057071	0.491690	0.492540
	C2316	C	-0.043818	0.495207	0.598470
	O2317	O	-0.048550	0.486149	0.601310
	N2318	N	-0.041061	0.503110	0.614911
	H2319	H	-0.037787	0.510538	0.611757
	C2320	C	-0.024444	0.513978	0.450625
	O2321	O	-0.017216	0.513391	0.442324
	N2322	N	-0.030387	0.516679	0.440236
	H2323	H	-0.035668	0.518063	0.448458
	C2324	C	-0.076724	0.566236	0.823279
	C2325	C	-0.066654	0.572642	0.815806
	C2326	C	-0.061803	0.568583	0.801527
	C2327	C	-0.067188	0.557771	0.794829
	C2328	C	-0.077416	0.551273	0.802714
	C2329	C	-0.082004	0.555641	0.816904
	H2330	H	-0.062738	0.580876	0.820470
	H2331	H	-0.089793	0.550849	0.822951
	C2332	C	-0.062461	0.553519	0.780071
	C2333	C	-0.052332	0.560054	0.771804
	C2334	C	-0.047930	0.555756	0.756913
	C2335	C	-0.053262	0.545181	0.750315
	C2336	C	-0.063247	0.538749	0.758139
	C2337	C	-0.067931	0.542742	0.773047
	H2338	H	-0.040346	0.560628	0.750106
	H2339	H	-0.067516	0.530658	0.752147
	C2340	C	-0.082684	0.540421	0.795569
	C2341	C	-0.078183	0.536367	0.781453
	H2342	H	-0.090433	0.535517	0.801656
	H2343	H	-0.082315	0.528185	0.776164
	C2344	C	-0.051545	0.574953	0.793145
	C2345	C	-0.047054	0.570902	0.778994
	H2346	H	-0.047454	0.583152	0.798269
	H2347	H	-0.039350	0.575822	0.772732
	C2348	C	-0.081950	0.570576	0.838568
	O2349	O	-0.090951	0.568124	0.836746
	N2350	N	-0.075843	0.577129	0.855591
	H2351	H	-0.068728	0.578092	0.857513
	C2352	C	-0.048595	0.540996	0.733201
	O2353	O	-0.044239	0.545502	0.717957
	N2354	N	-0.049092	0.531907	0.736889
	H2355	H	-0.051799	0.529044	0.750927
	C2356	C	-0.055308	0.593256	0.296428
	C2357	C	-0.064160	0.585287	0.305163
	C2358	C	-0.063667	0.577690	0.314373
	C2359	C	-0.053988	0.578038	0.314489
	C2360	C	-0.044998	0.586098	0.305241
	C2361	C	-0.045808	0.593600	0.296314
	H2362	H	-0.071421	0.585216	0.305216
	H2363	H	-0.038928	0.599911	0.289935
	C2364	C	-0.053255	0.570536	0.324237
	C2365	C	-0.062182	0.562688	0.334085
	C2366	C	-0.061208	0.555617	0.344254
	C2367	C	-0.051691	0.556059	0.344535
	C2368	C	-0.042894	0.563744	0.335004
	C2369	C	-0.043525	0.571010	0.324776
	H2370	H	-0.067821	0.549786	0.352333
	H2371	H	-0.035483	0.564242	0.336152
	C2372	C	-0.035337	0.586277	0.305724
	C2373	C	-0.034640	0.579107	0.314988
	H2374	H	-0.028529	0.592359	0.298598
	H2375	H	-0.027274	0.579425	0.315325
	C2376	C	-0.072582	0.569552	0.323996
	C2377	C	-0.071869	0.562438	0.333425
	H2378	H	-0.079925	0.569289	0.323759
	H2379	H	-0.078641	0.556418	0.340773
	C2380	C	-0.056353	0.601295	0.287242
	O2381	O	-0.061847	0.604498	0.295330
	N2382	N	-0.050786	0.604633	0.268634
	H2383	H	-0.047263	0.600941	0.261047
	C2384	C	-0.050788	0.548892	0.357119
	O2385	O	-0.053883	0.547786	0.375142
	N2386	N	-0.046793	0.543118	0.346097
	H2387	H	-0.045027	0.543738	0.330568
	C2388	C	-0.040703	0.621800	0.004259
	C2389	C	-0.042800	0.614155	0.016958
	C2390	C	-0.041738	0.616398	0.038808
	C2391	C	-0.038250	0.626699	0.048050
	C2392	C	-0.035708	0.634578	0.034873
	C2393	C	-0.036973	0.631988	0.013034
	H2394	H	-0.045476	0.606379	0.009628
	H2395	H	-0.035017	0.637854	0.002742
	C2396	C	-0.037486	0.629034	0.070326
	C2397	C	-0.040293	0.621064	0.083415
	C2398	C	-0.039861	0.623414	0.105293
	C2399	C	-0.036643	0.633448	0.114389
	C2400	C	-0.033957	0.641290	0.101731
	C2401	C	-0.034224	0.639267	0.079727
	H2402	H	-0.042306	0.617345	0.115347
	H2403	H	-0.031775	0.648937	0.109192
	C2404	C	-0.032057	0.644896	0.044763
	C2405	C	-0.031363	0.647112	0.066036
	H2406	H	-0.029790	0.650977	0.034828
	H2407	H	-0.028532	0.654950	0.073125
	C2408	C	-0.044223	0.608598	0.052371
	C2409	C	-0.043573	0.610809	0.073613
	H2410	H	-0.046721	0.600836	0.045193
	H2411	H	-0.045548	0.604823	0.083601
	C2412	C	-0.042702	0.618590	-0.018887
	O2413	O	-0.037740	0.615637	-0.030227
	N2414	N	-0.051406	0.618491	-0.025419
	H2415	H	-0.054814	0.621559	-0.015101
	C2416	C	-0.037080	0.635325	0.137943
	O2417	O	-0.042293	0.638691	0.146752
	N2418	N	-0.030944	0.632817	0.148309
	H2419	H	-0.026510	0.630385	0.139621
	C2420	C	0.570816	0.505705	0.551147
	C2421	C	0.571733	0.514263	0.543125
	C2422	C	0.572401	0.514864	0.521372
	C2423	C	0.572227	0.506681	0.507353
	C2424	C	0.571463	0.498061	0.515677
	C2425	C	0.570816	0.497759	0.537502
	H2426	H	0.571446	0.520259	0.553735
	H2427	H	0.570111	0.491211	0.544069
	C2428	C	0.572523	0.506971	0.485184
	C2429	C	0.573000	0.515455	0.476829
	C2430	C	0.572903	0.515420	0.454969
	C2431	C	0.572415	0.507211	0.441378
	C2432	C	0.571863	0.498850	0.449457
	C2433	C	0.571990	0.498610	0.471194
	H2434	H	0.572866	0.521627	0.448499
	H2435	H	0.571160	0.492440	0.438604
	C2436	C	0.571212	0.489877	0.501197
	C2437	C	0.571441	0.490128	0.480048
	H2438	H	0.570725	0.483394	0.507599
	H2439	H	0.571139	0.483847	0.469368
	C2440	C	0.573107	0.523418	0.512498
	C2441	C	0.573386	0.523695	0.491343
	H2442	H	0.573326	0.529668	0.523145
	H2443	H	0.573836	0.530170	0.484981
	C2444	C	0.569724	0.504750	0.574384
	O2445	O	0.564103	0.496527	0.581303
	N2446	N	0.576004	0.513796	0.587341
	H2447	H	0.581525	0.520234	0.580956
	C2448	C	0.571300	0.506697	0.418092
	O2449	O	0.564486	0.499135	0.408102
	N2450	N	0.578836	0.515404	0.408773
	H2451	H	0.584872	0.521218	0.417424
	C2452	C	0.501879	0.089257	0.420601
	C2453	C	0.506985	0.097342	0.436442
	C2454	C	0.504326	0.095876	0.457643
	C2455	C	0.496226	0.086001	0.462978
	C2456	C	0.490953	0.077808	0.446677
	C2457	C	0.493837	0.079599	0.425655
	H2458	H	0.513226	0.104728	0.432074
	H2459	H	0.490039	0.073382	0.413198
	C2460	C	0.493569	0.084278	0.484461
	C2461	C	0.498983	0.092415	0.500773
	C2462	C	0.496440	0.090489	0.521829
	C2463	C	0.488635	0.080736	0.526938
	C2464	C	0.483399	0.072707	0.511064
	C2465	C	0.485673	0.074324	0.489821
	H2466	H	0.500757	0.096506	0.534305
	H2467	H	0.477622	0.065141	0.515469
	C2468	C	0.482899	0.067914	0.452554
	C2469	C	0.480406	0.066254	0.473058
	H2470	H	0.478876	0.061716	0.440170
	H2471	H	0.474380	0.058729	0.477208
	C2472	C	0.509534	0.103969	0.474398
	C2473	C	0.507003	0.102323	0.494897
	H2474	H	0.515643	0.111462	0.470256
	H2475	H	0.511072	0.108503	0.507284
	C2476	C	0.505036	0.091141	0.398081
	O2477	O	0.514011	0.094873	0.392189
	N2478	N	0.496911	0.088557	0.384739
	H2479	H	0.489670	0.086201	0.390787
	C2480	C	0.486546	0.078513	0.549510
	O2481	O	0.486320	0.071163	0.555498
	N2482	N	0.484577	0.085358	0.562825
	H2483	H	0.484007	0.090884	0.556745
