data_Molecule from CHK

_cell_length_a		79.358463
_cell_length_b		123.349882
_cell_length_c		185.477236
_cell_angle_alpha	89.760144
_cell_angle_beta	89.761288
_cell_angle_gamma	90.659589
_symmetry_space_group_name_H-M	'P 1'
_symmetry_Int_Tables_number		1

loop_
	_symmetry_equiv_pos_as_xyz
	x,y,z

loop_
	_atom_site_label
	_atom_site_type_symbol
	_atom_site_fract_x
	_atom_site_fract_y
	_atom_site_fract_z
	H0	H	0.070181	0.212287	0.197688
	C1	C	0.076478	0.208553	0.193159
	C2	C	0.078978	0.197246	0.193342
	H3	H	0.079964	0.223357	0.187230
	C4	C	0.081878	0.214685	0.187376
	C5	C	0.090071	0.209612	0.181506
	H6	H	0.098853	0.194591	0.177157
	C7	C	0.092615	0.198381	0.181675
	C8	C	0.087268	0.191842	0.187530
	C9	C	0.075451	0.179840	0.199478
	C10	C	0.073299	0.190857	0.199351
	C11	C	0.083593	0.173865	0.193995
	C12	C	0.085691	0.162525	0.194445
	H13	H	0.080721	0.158239	0.199112
	H14	H	0.095690	0.148348	0.189449
	C15	C	0.093993	0.157028	0.189097
	C16	C	0.100519	0.162771	0.183043
	H17	H	0.103324	0.178309	0.177906
	C18	C	0.098276	0.174013	0.182548
	C19	C	0.089816	0.179950	0.187903
	C20	C	0.127418	0.147961	0.167368
	C21	C	0.130488	0.136665	0.167529
	H22	H	0.125132	0.131774	0.171842
	H23	H	0.142703	0.123460	0.162279
	C24	C	0.140213	0.132074	0.162234
	C25	C	0.147226	0.138451	0.156619
	C26	C	0.144366	0.149889	0.156266
	C27	C	0.134332	0.154325	0.161789
	H28	H	0.131918	0.162942	0.161717
	C29	C	0.151876	0.156410	0.150295
	C30	C	0.149784	0.167683	0.149503
	H31	H	0.142275	0.171917	0.153452
	C32	C	0.157074	0.173604	0.143790
	C33	C	0.166937	0.168177	0.138567
	H34	H	0.172529	0.172771	0.134167
	H35	H	0.176782	0.152951	0.135194
	C36	C	0.169276	0.157193	0.139146
	C37	C	0.161956	0.151224	0.144899
	C38	C	0.164151	0.139904	0.145665
	C39	C	0.157415	0.133675	0.151123
	H40	H	0.095986	0.242116	0.167437
	C41	C	0.103792	0.238116	0.163483
	C42	C	0.107337	0.226945	0.164340
	H43	H	0.120030	0.213192	0.159940
	C44	C	0.117393	0.221714	0.159214
	C45	C	0.124297	0.227163	0.153179
	H46	H	0.107771	0.252269	0.156976
	C47	C	0.110328	0.243725	0.157679
	C48	C	0.120575	0.238486	0.152545
	H49	H	0.133628	0.205703	0.152056
	C50	C	0.138757	0.210726	0.147763
	C51	C	0.134942	0.221865	0.147653
	C52	C	0.148867	0.205926	0.142475
	C53	C	0.155634	0.212402	0.136808
	H54	H	0.163468	0.208678	0.132744
	H55	H	0.157152	0.228346	0.132226
	C56	C	0.152136	0.223286	0.136530
	C57	C	0.141865	0.228135	0.141813
	C58	C	0.127753	0.244041	0.146562
	C59	C	0.137996	0.239432	0.141478
	C60	C	0.152137	0.194630	0.142844
	C61	C	0.154528	0.184964	0.143259
	C62	C	0.100884	0.221021	0.170350
	C63	C	0.095765	0.215821	0.175480
	C64	C	0.117510	0.152880	0.172830
	C65	C	0.109436	0.157281	0.177518
	N66	N	0.065330	0.193981	0.205655
	O67	O	0.068714	0.175975	0.205832
	C68	C	0.062879	0.185064	0.209301
	N69	N	0.162283	0.123006	0.150172
	O70	O	0.173216	0.133222	0.141260
	C71	C	0.171503	0.123080	0.144356
	N72	N	0.142937	0.247323	0.136528
	O73	O	0.126095	0.254784	0.144815
	C74	C	0.135707	0.256170	0.138660
	C75	C	-0.010169	0.173650	0.264101
	C76	C	0.001916	0.176362	0.258119
	C77	C	0.003434	0.171731	0.251323
	H78	H	-0.004483	0.165041	0.249584
	C79	C	0.015735	0.176401	0.246897
	C80	C	0.020527	0.173658	0.239303
	C81	C	0.025774	0.185107	0.249118
	C82	C	0.037182	0.188339	0.243028
	C83	C	0.024402	0.189658	0.255932
	H84	H	0.032238	0.196398	0.257655
	C85	C	0.012113	0.184977	0.260347
	C86	C	0.007137	0.187983	0.267848
	N87	N	0.033248	0.181250	0.237276
	N88	N	-0.006543	0.181041	0.269744
	O89	O	0.047657	0.195487	0.242919
	O90	O	0.014857	0.166551	0.235564
	O91	O	0.013410	0.194865	0.271603
	O92	O	-0.020958	0.166702	0.264177
	C93	C	0.040687	0.182047	0.230225
	C94	C	-0.015960	0.181809	0.276360
	C95	C	0.043545	0.192258	0.227123
	C96	C	0.050693	0.193104	0.220286
	H97	H	0.040029	0.199487	0.230008
	C98	C	0.055224	0.183807	0.216451
	H99	H	0.052892	0.200995	0.217862
	C100	C	0.052332	0.173601	0.219602
	C101	C	0.045061	0.172712	0.226431
	H102	H	0.055703	0.166373	0.216674
	H103	H	0.042790	0.164825	0.228828
	C104	C	-0.018173	0.191921	0.279594
	C105	C	-0.027269	0.192735	0.285987
	H106	H	-0.012878	0.199161	0.277144
	C107	C	-0.034473	0.183515	0.289248
	H108	H	-0.028906	0.200555	0.288507
	C109	C	-0.032303	0.173414	0.285964
	C110	C	-0.023107	0.172556	0.279580
	H111	H	-0.037776	0.166233	0.288436
	H112	H	-0.021318	0.164693	0.277165
	C113	C	0.246942	0.048311	0.122921
	C114	C	0.236204	0.058090	0.123922
	C115	C	0.230740	0.062893	0.130273
	H116	H	0.233888	0.059723	0.135544
	C117	C	0.221026	0.072105	0.129359
	C118	C	0.213352	0.079280	0.134940
	C119	C	0.217061	0.076219	0.122571
	C120	C	0.206736	0.086176	0.123554
	C121	C	0.222455	0.071391	0.116221
	H122	H	0.219356	0.074582	0.110951
	C123	C	0.232186	0.062191	0.117139
	C124	C	0.240112	0.055161	0.111551
	N125	N	0.205071	0.087615	0.131099
	N126	N	0.248912	0.047034	0.115371
	O127	O	0.200882	0.091900	0.118944
	O128	O	0.214030	0.078349	0.141399
	O129	O	0.239273	0.056073	0.105093
	O130	O	0.252918	0.042633	0.127525
	C131	C	0.196519	0.096523	0.134407
	C132	C	0.258858	0.038769	0.112030
	C133	C	0.197528	0.106861	0.131296
	C134	C	0.189386	0.115528	0.134518
	H135	H	0.204846	0.108159	0.126436
	C136	C	0.180060	0.114027	0.140887
	H137	H	0.190275	0.123505	0.132094
	C138	C	0.179055	0.103633	0.143949
	C139	C	0.187198	0.094942	0.140747
	H140	H	0.171887	0.102457	0.148874
	H141	H	0.186324	0.086970	0.143168
	C142	C	0.267918	0.041081	0.105712
	C143	C	0.277592	0.033105	0.102475
	H144	H	0.267462	0.049084	0.103335
	C145	C	0.278464	0.022697	0.105501
	H146	H	0.284514	0.034951	0.097578
	C147	C	0.269387	0.020455	0.111840
	C148	C	0.259662	0.028403	0.115085
	H149	H	0.270022	0.012421	0.114185
	H150	H	0.252572	0.026504	0.119923
	C151	C	0.125264	0.304934	0.124646
	C152	C	0.132015	0.315134	0.121268
	C153	C	0.123372	0.324290	0.119044
	H154	H	0.109827	0.324953	0.119542
	C155	C	0.133411	0.332541	0.116147
	C156	C	0.128332	0.343363	0.113267
	C157	C	0.150873	0.331728	0.115560
	C158	C	0.157635	0.342067	0.112364
	C159	C	0.159498	0.322530	0.117730
	H160	H	0.173046	0.321875	0.117243
	C161	C	0.149449	0.314247	0.120587
	C162	C	0.154470	0.303377	0.123423
	N163	N	0.143455	0.348685	0.111115
	N164	N	0.139381	0.298235	0.125811
	O165	O	0.172094	0.344441	0.111054
	O166	O	0.114340	0.346990	0.112836
	O167	O	0.168395	0.299618	0.123700
	O168	O	0.110833	0.302694	0.126114
	C169	C	0.144273	0.359455	0.108163
	C170	C	0.138497	0.287664	0.129064
	C171	C	0.157070	0.366631	0.110282
	C172	C	0.157647	0.377124	0.107501
	H173	H	0.166348	0.364066	0.114162
	C174	C	0.145595	0.380591	0.102520
	H175	H	0.167455	0.382739	0.109161
	C176	C	0.132910	0.373301	0.100375
	C177	C	0.132217	0.362823	0.103180
	H178	H	0.123503	0.375884	0.096551
	H179	H	0.122341	0.357273	0.101529
	C180	C	0.148261	0.279230	0.126356
	C181	C	0.147231	0.268976	0.129499
	H182	H	0.156432	0.280659	0.121765
	C183	C	0.136590	0.267002	0.135422
	H184	H	0.154694	0.262400	0.127403
	C185	C	0.126933	0.275532	0.138126
	C186	C	0.127834	0.285776	0.134970
	H187	H	0.118620	0.274110	0.142677
	H188	H	0.120294	0.292293	0.137072
	H189	H	0.846886	0.228145	0.368727
	C190	C	0.852601	0.223063	0.364669
	C191	C	0.864378	0.227839	0.359862
	H192	H	0.839522	0.208555	0.367945
	C193	C	0.848521	0.212221	0.364244
	C194	C	0.856213	0.205715	0.358907
	H195	H	0.873658	0.205395	0.350048
	C196	C	0.867835	0.210442	0.354091
	C197	C	0.872285	0.221534	0.354361
	C198	C	0.880481	0.243626	0.355726
	C199	C	0.868822	0.239092	0.360350
	C200	C	0.888736	0.238032	0.350101
	C201	C	0.900472	0.243197	0.345438
	H202	H	0.903347	0.251710	0.346236
	H203	H	0.916991	0.241497	0.336365
	C204	C	0.908041	0.237555	0.339961
	C205	C	0.904066	0.226425	0.338972
	H206	H	0.889582	0.212774	0.342814
	C207	C	0.892525	0.221266	0.343637
	C208	C	0.884522	0.226751	0.349326
	C209	C	0.924175	0.209106	0.322602
	C210	C	0.934493	0.214109	0.317261
	H211	H	0.937331	0.222691	0.317637
	H212	H	0.948654	0.211704	0.307564
	C213	C	0.940744	0.208023	0.311691
	C214	C	0.937029	0.196833	0.311205
	C215	C	0.926636	0.191499	0.316490
	C216	C	0.920449	0.197989	0.322137
	H217	H	0.912573	0.194257	0.326250
	C218	C	0.922913	0.179726	0.315817
	C219	C	0.912604	0.173852	0.320688
	H220	H	0.907002	0.178103	0.325174
	C221	C	0.909275	0.162724	0.319919
	C222	C	0.916516	0.157039	0.314066
	H223	H	0.913948	0.148451	0.313495
	H224	H	0.932203	0.158232	0.304689
	C225	C	0.926639	0.162477	0.309193
	C226	C	0.929921	0.173696	0.309935
	C227	C	0.940114	0.179599	0.304970
	C228	C	0.943550	0.190499	0.305408
	H229	H	0.829611	0.172608	0.366445
	C230	C	0.835594	0.168048	0.362190
	C231	C	0.846462	0.173493	0.357247
	H232	H	0.862532	0.171862	0.347986
	C233	C	0.854262	0.167615	0.351723
	C234	C	0.851731	0.156367	0.350857
	H235	H	0.824521	0.152834	0.365268
	C236	C	0.832793	0.157089	0.361528
	C237	C	0.840633	0.151163	0.355969
	H238	H	0.873737	0.162926	0.340031
	C239	C	0.870863	0.154333	0.339865
	C240	C	0.859774	0.149887	0.345087
	C241	C	0.878278	0.148005	0.334475
	C242	C	0.874615	0.136741	0.334196
	H243	H	0.880352	0.131880	0.330028
	H244	H	0.860928	0.123548	0.339065
	C245	C	0.863863	0.132140	0.339199
	C246	C	0.856380	0.138475	0.344633
	C247	C	0.838005	0.139868	0.355131
	C248	C	0.845195	0.133679	0.349847
	C249	C	0.889348	0.152920	0.329340
	C250	C	0.898636	0.157289	0.324986
	C251	C	0.849509	0.184824	0.357876
	C252	C	0.852355	0.194460	0.358397
	C253	C	0.917536	0.215278	0.328387
	C254	C	0.911567	0.220475	0.333281
	N255	N	0.863196	0.247009	0.365046
	O256	O	0.882328	0.254344	0.357508
	C257	C	0.871394	0.255796	0.363215
	N258	N	0.953594	0.193582	0.299613
	O259	O	0.948071	0.175765	0.298920
	C260	C	0.955955	0.184754	0.295948
	N261	N	0.839734	0.123017	0.350673
	O262	O	0.828053	0.133169	0.359299
	C263	C	0.829747	0.123055	0.356253
	H264	H	0.399546	-0.096344	0.077815
	C265	C	0.394068	-0.088347	0.077950
	C266	C	0.382996	-0.085854	0.083665
	H267	H	0.406361	-0.082723	0.068309
	C268	C	0.397851	-0.080817	0.072688
	C269	C	0.390552	-0.070393	0.072983
	H270	H	0.374005	-0.059910	0.078815
	C271	C	0.379502	-0.067893	0.078641
	C272	C	0.375330	-0.075421	0.084129
	C273	C	0.368416	-0.091206	0.094729
	C274	C	0.379141	-0.093669	0.089171
	C275	C	0.360244	-0.081144	0.095584
	C276	C	0.349246	-0.079098	0.101418
	H277	H	0.347010	-0.085448	0.105369
	H278	H	0.333087	-0.067653	0.106546
	C279	C	0.341515	-0.069242	0.102081
	C280	C	0.344579	-0.061016	0.096860
	H281	H	0.357734	-0.056695	0.087113
	C282	C	0.355504	-0.063036	0.091064
	C283	C	0.363689	-0.073026	0.090188
	C284	C	0.322935	-0.031490	0.098301
	C285	C	0.311852	-0.028835	0.104024
	H286	H	0.308913	-0.034873	0.108104
	H287	H	0.296543	-0.016486	0.108669
	C288	C	0.305012	-0.018659	0.104329
	C289	C	0.308865	-0.010779	0.099017
	C290	C	0.319972	-0.013179	0.093143
	C291	C	0.326761	-0.023695	0.093001
	H292	H	0.335238	-0.025808	0.088656
	C293	C	0.323798	-0.004755	0.087616
	C294	C	0.334510	-0.006387	0.081650
	H295	H	0.340344	-0.014212	0.081006
	C296	C	0.337885	0.001754	0.076521
	C297	C	0.330338	0.012052	0.077281
	H298	H	0.332970	0.018310	0.073313
	H299	H	0.313971	0.021795	0.083667
	C300	C	0.319815	0.013966	0.083024
	C301	C	0.316417	0.005778	0.088195
	C302	C	0.305664	0.007474	0.094186
	C303	C	0.301835	-0.000158	0.099355
	H304	H	0.418661	-0.056936	0.051805
	C305	C	0.412691	-0.049122	0.052257
	C306	C	0.401227	-0.047280	0.057995
	H307	H	0.384725	-0.035864	0.063001
	C308	C	0.393456	-0.037164	0.058601
	C309	C	0.396593	-0.028623	0.053691
	H310	H	0.424812	-0.042303	0.042945
	C311	C	0.416083	-0.041000	0.047353
	C312	C	0.408274	-0.030806	0.047960
	H313	H	0.373883	-0.020945	0.063763
	C314	C	0.377117	-0.014991	0.059670
	C315	C	0.388606	-0.017827	0.054189
	C316	C	0.369786	-0.004716	0.060007
	C317	C	0.373904	0.003167	0.054683
	H318	H	0.368209	0.011087	0.054955
	H319	H	0.388374	0.006603	0.045162
	C320	C	0.385060	0.000676	0.049266
	C321	C	0.392514	-0.009643	0.048922
	C322	C	0.411486	-0.022245	0.043014
	C323	C	0.404235	-0.012216	0.043317
	C324	C	0.358378	-0.002290	0.065689
	C325	C	0.348852	-0.000362	0.070630
	C326	C	0.397583	-0.055564	0.063135
	C327	C	0.394376	-0.062466	0.067617
	C328	C	0.330230	-0.041945	0.097896
	C329	C	0.336714	-0.050765	0.097462
	N330	N	0.384730	-0.104199	0.090065
	O331	O	0.367223	-0.100135	0.099141
	C332	C	0.377497	-0.107694	0.095951
	N333	N	0.290989	0.004341	0.104376
	O334	O	0.297305	0.016777	0.095922
	C335	C	0.288667	0.014242	0.102186
	N336	N	0.410312	-0.005921	0.037644
	O337	O	0.422138	-0.022308	0.037172
	C338	C	0.420750	-0.012100	0.034187
	H339	H	0.178136	0.524719	0.080953
	C340	C	0.174044	0.516324	0.080712
	C341	C	0.180552	0.508975	0.085816
	H342	H	0.157693	0.518572	0.071681
	C343	C	0.162729	0.512935	0.075582
	C344	C	0.157509	0.501912	0.075392
	H345	H	0.159942	0.486177	0.080229
	C346	C	0.164022	0.494572	0.080426
	C347	C	0.175658	0.497767	0.085763
	C348	C	0.198421	0.505399	0.096199
	C349	C	0.192159	0.512531	0.091218
	C350	C	0.194397	0.494187	0.096491
	C351	C	0.201338	0.487180	0.101709
	H352	H	0.210070	0.490503	0.105614
	H353	H	0.202384	0.470968	0.105845
	C354	C	0.197098	0.476348	0.101846
	C355	C	0.185640	0.472125	0.096697
	H356	H	0.170047	0.475748	0.087598
	C357	C	0.178762	0.479070	0.091503
	C358	C	0.182767	0.490219	0.091179
	C359	C	0.170601	0.440612	0.096882
	C360	C	0.177798	0.432909	0.101615
	H361	H	0.187962	0.435400	0.105136
	H362	H	0.177052	0.416445	0.105308
	C363	C	0.171759	0.422422	0.101702
	C364	C	0.158444	0.419190	0.097141
	C365	C	0.151008	0.426707	0.092216
	C366	C	0.157485	0.437406	0.092287
	H367	H	0.152051	0.443354	0.088705
	C368	C	0.137152	0.423056	0.087417
	C369	C	0.129462	0.429756	0.082244
	H370	H	0.133919	0.438038	0.081655
	C371	C	0.116350	0.426060	0.077799
	C372	C	0.110409	0.415219	0.078490
	H373	H	0.100262	0.412406	0.075068
	H374	H	0.113223	0.400111	0.084019
	C375	C	0.117604	0.408420	0.083457
	C376	C	0.130899	0.412105	0.087893
	C377	C	0.138776	0.405272	0.092990
	C378	C	0.151910	0.408330	0.097343
	H379	H	0.121142	0.506263	0.055082
	C380	C	0.116491	0.498004	0.055530
	C381	C	0.122942	0.491154	0.060995
	H382	H	0.121986	0.475301	0.065794
	C383	C	0.116971	0.480438	0.061594
	C384	C	0.104638	0.476118	0.056942
	H385	H	0.099388	0.499250	0.046699
	C386	C	0.104437	0.494101	0.050891
	C387	C	0.098376	0.483319	0.051503
	H388	H	0.113273	0.459658	0.066352
	C389	C	0.103655	0.457215	0.062552
	C390	C	0.098060	0.464824	0.057421
	C391	C	0.097224	0.446590	0.062886
	C392	C	0.084635	0.443273	0.057937
	H393	H	0.079683	0.435068	0.058212
	H394	H	0.069308	0.448079	0.049032
	C395	C	0.078903	0.450481	0.052860
	C396	C	0.085378	0.461173	0.052490
	C397	C	0.085898	0.479043	0.046844
	C398	C	0.079499	0.468675	0.047182
	C399	C	0.103451	0.439264	0.068153
	C400	C	0.109192	0.433157	0.072622
	C401	C	0.135320	0.495062	0.065881
	C402	C	0.145662	0.498268	0.070184
	C403	C	0.176464	0.451548	0.096806
	C404	C	0.180973	0.460966	0.096773
	N405	N	0.198743	0.522777	0.092545
	O406	O	0.208933	0.511125	0.100687
	C407	C	0.208447	0.521626	0.098126
	N408	N	0.156575	0.399539	0.101541
	O409	O	0.135042	0.394604	0.094456
	C410	C	0.146401	0.391688	0.099707
	N411	N	0.067523	0.467373	0.041816
	O412	O	0.078035	0.484293	0.041291
	C413	C	0.067039	0.476674	0.038494
	C414	C	0.750343	0.047804	0.376578
	C415	C	0.761291	0.057691	0.375704
	C416	C	0.767463	0.062532	0.369427
	H417	H	0.764814	0.059318	0.364123
	C418	C	0.777205	0.071837	0.370458
	C419	C	0.785568	0.079069	0.364981
	C420	C	0.780533	0.076000	0.377288
	C421	C	0.791109	0.086039	0.376438
	C422	C	0.774427	0.071141	0.383564
	H423	H	0.777033	0.074371	0.388867
	C424	C	0.764672	0.061849	0.382528
	C425	C	0.756108	0.054761	0.388016
	N426	N	0.793583	0.087478	0.368924
	N427	N	0.747602	0.046534	0.384096
	O428	O	0.796564	0.091820	0.381121
	O429	O	0.785547	0.078125	0.358520
	O430	O	0.756312	0.055706	0.394477
	O431	O	0.744773	0.042043	0.371911
	C432	C	0.802721	0.096420	0.365739
	C433	C	0.737288	0.038165	0.387328
	C434	C	0.801621	0.106755	0.368768
	C435	C	0.810397	0.115448	0.365688
	H436	H	0.793767	0.108027	0.373455
	C437	C	0.820446	0.113980	0.359544
	H438	H	0.809453	0.123419	0.368053
	C439	C	0.821495	0.103595	0.356551
	C440	C	0.812719	0.094877	0.359611
	H441	H	0.829214	0.102446	0.351797
	H442	H	0.813646	0.086910	0.357251
	C443	C	0.727656	0.040413	0.393464
	C444	C	0.717696	0.032331	0.396624
	H445	H	0.727907	0.048447	0.395765
	C446	C	0.717097	0.021874	0.393702
	H447	H	0.710349	0.034130	0.401387
	C448	C	0.726714	0.019702	0.387533
	C449	C	0.736727	0.027761	0.384363
	H450	H	0.726283	0.011632	0.385265
	H451	H	0.744242	0.025920	0.379663
	C452	C	0.881253	0.304624	0.377181
	C453	C	0.874326	0.314895	0.380184
	C454	C	0.882911	0.324099	0.382538
	H455	H	0.896526	0.324748	0.382460
	C456	C	0.872720	0.332419	0.384978
	C457	C	0.877708	0.343315	0.387826
	C458	C	0.855181	0.331619	0.385030
	C459	C	0.848293	0.342031	0.387851
	C460	C	0.846603	0.322377	0.382727
	H461	H	0.832986	0.321737	0.382791
	C462	C	0.856794	0.314031	0.380315
	C463	C	0.851863	0.303115	0.377462
	N464	N	0.862471	0.348691	0.389419
	N465	N	0.867125	0.297920	0.375635
	O466	O	0.833744	0.344425	0.388684
	O467	O	0.891729	0.346952	0.388618
	O468	O	0.837882	0.299366	0.376780
	O469	O	0.895814	0.302341	0.376238
	C470	C	0.861583	0.359551	0.392138
	C471	C	0.868173	0.287324	0.372503
	C472	C	0.873086	0.363123	0.397329
	C473	C	0.872314	0.373674	0.399926
	H474	H	0.882474	0.357635	0.399368
	C475	C	0.860125	0.380845	0.397357
	H476	H	0.881239	0.376390	0.403943
	C477	C	0.848653	0.377188	0.392156
	C478	C	0.849322	0.366626	0.389571
	H479	H	0.839195	0.382701	0.390182
	H480	H	0.840407	0.363895	0.385562
	C481	C	0.857473	0.278948	0.374876
	C482	C	0.858639	0.268682	0.371839
	H483	H	0.848455	0.280428	0.379132
	C484	C	0.870371	0.266633	0.366358
	H485	H	0.850444	0.262153	0.373679
	C486	C	0.880971	0.275103	0.363985
	C487	C	0.879915	0.285360	0.367033
	H488	H	0.890122	0.273628	0.359775
	H489	H	0.888172	0.291828	0.365177
	C490	C	0.385127	0.840881	0.105480
	C491	C	0.386774	0.832197	0.111082
	C492	C	0.388163	0.821053	0.110197
	H493	H	0.388199	0.817271	0.104941
	C494	C	0.389489	0.815125	0.116559
	C495	C	0.391108	0.803144	0.117589
	C496	C	0.389481	0.820002	0.123325
	C497	C	0.391121	0.811329	0.128932
	C498	C	0.388059	0.831142	0.124211
	H499	H	0.388017	0.834924	0.129468
	C500	C	0.386682	0.837064	0.117851
	C501	C	0.384944	0.849037	0.116832
	N502	N	0.392022	0.801404	0.125135
	N503	N	0.384069	0.850791	0.109287
	O504	O	0.391518	0.812392	0.135382
	O505	O	0.391615	0.796253	0.113013
	O506	O	0.384431	0.855918	0.121415
	O507	O	0.384668	0.839827	0.099030
	C508	C	0.393510	0.790954	0.128505
	C509	C	0.382361	0.861246	0.105946
	C510	C	0.385008	0.781956	0.125658
	C511	C	0.386320	0.771858	0.128971
	H512	H	0.377202	0.782882	0.120940
	C513	C	0.396183	0.770562	0.135161
	H514	H	0.379650	0.764943	0.126764
	C515	C	0.404743	0.779608	0.137946
	C516	C	0.403447	0.789721	0.134657
	H517	H	0.412348	0.778635	0.142732
	H518	H	0.410112	0.796626	0.136868
	C519	C	0.372272	0.869123	0.109148
	C520	C	0.370614	0.879251	0.105909
	H521	H	0.365582	0.867294	0.114100
	C522	C	0.379030	0.881697	0.099434
	H523	H	0.362765	0.885297	0.108405
	C524	C	0.389139	0.873763	0.096274
	C525	C	0.390815	0.863622	0.099490
	H526	H	0.395628	0.875625	0.091267
	H527	H	0.398674	0.857590	0.096996
	C528	C	0.464669	-0.008588	0.003794
	C529	C	0.475399	-0.002281	-0.001424
	C530	C	0.482959	-0.005700	-0.007784
	H531	H	0.481684	-0.013921	-0.009746
	C532	C	0.492297	0.002211	-0.011435
	C533	C	0.502048	0.001336	-0.018325
	C534	C	0.493907	0.012802	-0.008916
	C535	C	0.504747	0.019093	-0.014101
	C536	C	0.486342	0.016222	-0.002559
	H537	H	0.487636	0.024439	-0.000592
	C538	C	0.477040	0.008303	0.001100
	C539	C	0.467490	0.009147	0.008042
	N540	N	0.509258	0.011735	-0.019613
	N541	N	0.460378	-0.001272	0.009365
	O542	O	0.509000	0.028480	-0.013735
	O543	O	0.503570	-0.006520	-0.022100
	O544	O	0.466089	0.016992	0.011834
	O545	O	0.460357	-0.017963	0.003414
	C546	C	0.519924	0.014435	-0.025651
	C547	C	0.450320	-0.004070	0.015576
	C548	C	0.519009	0.024665	-0.028895
	C549	C	0.529411	0.027265	-0.034723
	H550	H	0.510084	0.030522	-0.026933
	C551	C	0.540910	0.019732	-0.037407
	H552	H	0.528720	0.035171	-0.037253
	C553	C	0.541747	0.009497	-0.034124
	C554	C	0.531366	0.006864	-0.028294
	H555	H	0.550535	0.003594	-0.036152
	H556	H	0.532182	-0.001043	-0.025797
	C557	C	0.439326	0.003497	0.018552
	C558	C	0.429741	0.000798	0.024611
	H559	H	0.438249	0.011458	0.016157
	C560	C	0.430891	-0.009490	0.027791
	H561	H	0.421292	0.006659	0.026950
	C562	C	0.441868	-0.017047	0.024753
	C563	C	0.451504	-0.014372	0.018702
	H564	H	0.442896	-0.025015	0.027156
	H565	H	0.460102	-0.020227	0.016485
	C566	C	0.261490	0.553716	0.115868
	C567	C	0.266412	0.564694	0.118624
	C568	C	0.280884	0.567921	0.122280
	H569	H	0.290791	0.562324	0.123648
	C570	C	0.281751	0.578877	0.124007
	C571	C	0.295396	0.585081	0.127796
	C572	C	0.269033	0.586086	0.122196
	C573	C	0.274061	0.597144	0.124725
	C574	C	0.254530	0.582861	0.118578
	H575	H	0.244651	0.588466	0.117185
	C576	C	0.253686	0.571915	0.116853
	C577	C	0.240129	0.565839	0.112959
	N578	N	0.290068	0.596010	0.127975
	N579	N	0.245653	0.554983	0.112467
	O580	O	0.266248	0.605421	0.124179
	O581	O	0.308379	0.581666	0.130204
	O582	O	0.227049	0.569328	0.110695
	O583	O	0.269276	0.545421	0.116342
	C584	C	0.299749	0.604871	0.130873
	C585	C	0.236485	0.546481	0.108870
	C586	C	0.299699	0.614956	0.127403
	C587	C	0.309032	0.623568	0.130186
	H588	H	0.292573	0.616041	0.122506
	C589	C	0.318525	0.622298	0.136481
	H590	H	0.309035	0.631379	0.127503
	C591	C	0.318516	0.612164	0.139929
	C592	C	0.309217	0.603507	0.137149
	H593	H	0.325845	0.611075	0.144776
	H594	H	0.309276	0.595721	0.139842
	C595	C	0.227096	0.548839	0.102705
	C596	C	0.218042	0.540666	0.099259
	H597	H	0.226821	0.557013	0.100597
	C598	C	0.218257	0.529988	0.101859
	H599	H	0.210671	0.542497	0.094519
	C600	C	0.227807	0.527662	0.108002
	C601	C	0.236848	0.535831	0.111483
	H602	H	0.228066	0.519452	0.110066
	H603	H	0.243951	0.533963	0.116280
	C604	C	0.009246	0.485409	0.013581
	C605	C	0.003561	0.490665	0.006736
	C606	C	-0.012047	0.490045	0.003373
	H607	H	-0.022448	0.485294	0.005551
	C608	C	-0.013329	0.495997	-0.002981
	C609	C	-0.028095	0.497198	-0.007900
	C610	C	0.000054	0.502128	-0.005776
	C611	C	-0.005624	0.507438	-0.012598
	C612	C	0.015661	0.502750	-0.002416
	H613	H	0.026056	0.507510	-0.004589
	C614	C	0.016930	0.496814	0.003944
	C615	C	0.031652	0.495722	0.008892
	N616	N	-0.022649	0.504177	-0.013561
	N617	N	0.026197	0.488808	0.014582
	O618	O	0.002474	0.513272	-0.016557
	O619	O	-0.041922	0.493171	-0.007249
	O620	O	0.045454	0.499789	0.008249
	O621	O	0.001219	0.479521	0.017530
	C622	C	-0.033024	0.507543	-0.019476
	C623	C	0.036456	0.485766	0.020609
	C624	C	-0.031255	0.517994	-0.022357
	C625	C	-0.041330	0.521240	-0.028078
	H626	H	-0.022217	0.523624	-0.020086
	C627	C	-0.053335	0.514138	-0.031025
	H628	H	-0.040013	0.529331	-0.030308
	C629	C	-0.055014	0.503673	-0.028115
	C630	C	-0.044938	0.500388	-0.022403
	H631	H	-0.064247	0.498110	-0.030331
	H632	H	-0.046327	0.492280	-0.020234
	C633	C	0.047829	0.493250	0.023565
	C634	C	0.057814	0.490315	0.029388
	H635	H	0.048867	0.501335	0.021329
	C636	C	0.056601	0.479876	0.032375
	H637	H	0.066629	0.496135	0.031623
	C638	C	0.045133	0.472442	0.029397
	C639	C	0.035119	0.475345	0.023572
	H640	H	0.044176	0.464374	0.031691
	H641	H	0.026467	0.469488	0.021279
	H642	H	0.598833	-0.099613	0.423019
	C643	C	0.603867	-0.091428	0.422694
	C644	C	0.614845	-0.088767	0.416932
	H645	H	0.591187	-0.085862	0.432178
	C646	C	0.599624	-0.083827	0.427763
	C647	C	0.606346	-0.073157	0.427219
	H648	H	0.622351	-0.062315	0.421147
	C649	C	0.617302	-0.070487	0.421514
	C650	C	0.621939	-0.078083	0.416219
	C651	C	0.629775	-0.094040	0.406012
	C652	C	0.619175	-0.096665	0.411628
	C653	C	0.637398	-0.083723	0.404918
	C654	C	0.648308	-0.081516	0.399041
	H655	H	0.650883	-0.087933	0.395240
	H656	H	0.663926	-0.069718	0.393664
	C657	C	0.655553	-0.071426	0.398158
	C658	C	0.652067	-0.063116	0.403190
	H659	H	0.638645	-0.058884	0.412826
	C660	C	0.641200	-0.065290	0.409019
	C661	C	0.633502	-0.075520	0.410117
	C662	C	0.672784	-0.033042	0.401246
	C663	C	0.684091	-0.030281	0.395575
	H664	H	0.687337	-0.036353	0.391626
	H665	H	0.699415	-0.017713	0.390860
	C666	C	0.690768	-0.019963	0.395158
	C667	C	0.686532	-0.012040	0.400303
	C668	C	0.675162	-0.014539	0.406113
	C669	C	0.668553	-0.025199	0.406374
	H670	H	0.659909	-0.027392	0.410680
	C671	C	0.670910	-0.006069	0.411462
	C672	C	0.659915	-0.007786	0.417353
	H673	H	0.654170	-0.015718	0.418072
	C674	C	0.656155	0.000403	0.422315
	C675	C	0.663576	0.010842	0.421455
	H676	H	0.660644	0.017136	0.425294
	H677	H	0.680122	0.020778	0.415063
	C678	C	0.674364	0.012842	0.415781
	C679	C	0.678161	0.004602	0.410781
	C680	C	0.689225	0.006379	0.404875
	C681	C	0.693443	-0.001285	0.399866
	H682	H	0.577203	-0.059866	0.448012
	C683	C	0.582807	-0.051873	0.447393
	C684	C	0.594275	-0.049870	0.441645
	H685	H	0.610315	-0.038103	0.436417
	C686	C	0.601577	-0.039525	0.440824
	C687	C	0.597957	-0.030907	0.445524
	H688	H	0.570204	-0.045105	0.456506
	C689	C	0.578945	-0.043680	0.452094
	C690	C	0.586274	-0.033254	0.451269
	H691	H	0.620578	-0.022896	0.435367
	C692	C	0.616955	-0.016885	0.439296
	C693	C	0.605459	-0.019876	0.444794
	C694	C	0.623821	-0.006389	0.438739
	C695	C	0.619197	0.001572	0.443846
	H696	H	0.624530	0.009665	0.443403
	H697	H	0.604330	0.004914	0.453216
	C698	C	0.608023	-0.001067	0.449274
	C699	C	0.601051	-0.011615	0.449843
	C700	C	0.582563	-0.024608	0.455997
	C701	C	0.589342	-0.014354	0.455468
	C702	C	0.635293	-0.003828	0.433060
	C703	C	0.644949	-0.001809	0.428146
	C704	C	0.598402	-0.058218	0.436706
	C705	C	0.602036	-0.065162	0.432388
	C706	C	0.665702	-0.043658	0.401785
	C707	C	0.659488	-0.052639	0.402374
	N708	N	0.614212	-0.107434	0.411003
	O709	O	0.631501	-0.103108	0.401829
	C710	C	0.621670	-0.110911	0.405212
	N711	N	0.704561	0.003318	0.394902
	O712	O	0.697593	0.015802	0.403095
	C713	C	0.706660	0.013304	0.396974
	N714	N	0.582872	-0.008036	0.460964
	O715	O	0.571812	-0.024788	0.461809
	C716	C	0.572668	-0.014417	0.464543
	H717	H	0.826406	0.524970	0.416494
	C718	C	0.830738	0.516690	0.416815
	C719	C	0.824406	0.509116	0.411797
	H720	H	0.847059	0.519468	0.425808
	C721	C	0.842170	0.513658	0.421969
	C722	C	0.847699	0.502779	0.422268
	H723	H	0.845690	0.486936	0.417593
	C724	C	0.841375	0.495217	0.417314
	C725	C	0.829623	0.498043	0.411959
	C726	C	0.806569	0.504946	0.401482
	C727	C	0.812644	0.512299	0.406382
	C728	C	0.810932	0.493848	0.401293
	C729	C	0.804169	0.486608	0.396150
	H730	H	0.795337	0.489660	0.392219
	H731	H	0.803525	0.470327	0.392190
	C732	C	0.808686	0.475887	0.396126
	C733	C	0.820259	0.472019	0.401314
	H734	H	0.835794	0.476148	0.410359
	C735	C	0.826986	0.479200	0.406424
	C736	C	0.822696	0.490247	0.406631
	C737	C	0.835517	0.440771	0.401615
	C738	C	0.828641	0.432895	0.396888
	H739	H	0.818790	0.435199	0.393185
	H740	H	0.829515	0.416363	0.393453
	C741	C	0.834579	0.422473	0.397044
	C742	C	0.847473	0.419479	0.401850
	C743	C	0.854611	0.427187	0.406757
	C744	C	0.848240	0.437809	0.406439
	H745	H	0.853423	0.443888	0.410017
	C746	C	0.868060	0.423799	0.411801
	C747	C	0.875520	0.430727	0.416931
	H748	H	0.871211	0.439000	0.417287
	C749	C	0.888244	0.427276	0.421614
	C750	C	0.894002	0.416454	0.421227
	H751	H	0.903843	0.413828	0.424837
	H752	H	0.891280	0.401146	0.415972
	C753	C	0.887026	0.409440	0.416309
	C754	C	0.874142	0.412885	0.411621
	C755	C	0.866541	0.405841	0.406544
	C756	C	0.853852	0.408674	0.401932
	H757	H	0.884256	0.508372	0.442415
	C758	C	0.888709	0.500119	0.442203
	C759	C	0.882188	0.492983	0.436902
	H760	H	0.882850	0.476916	0.432530
	C761	C	0.887920	0.482276	0.436605
	C762	C	0.900053	0.478239	0.441415
	H763	H	0.905649	0.501861	0.451066
	C764	C	0.900565	0.496494	0.446991
	C765	C	0.906353	0.485715	0.446696
	H766	H	0.891417	0.461351	0.432330
	C767	C	0.900804	0.459114	0.436264
	C768	C	0.906374	0.466963	0.441252
	C769	C	0.906988	0.448512	0.436236
	C770	C	0.919283	0.445465	0.441359
	H771	H	0.924039	0.437277	0.441321
	H772	H	0.934367	0.450723	0.450255
	C773	C	0.924988	0.452913	0.446300
	C774	C	0.918773	0.463587	0.446357
	C775	C	0.918559	0.481702	0.451539
	C776	C	0.924649	0.471341	0.451515
	C777	C	0.900826	0.440936	0.431097
	C778	C	0.895207	0.434609	0.426717
	C779	C	0.869953	0.496584	0.431888
	C780	C	0.859631	0.499499	0.427516
	C781	C	0.829707	0.451630	0.401475
	C782	C	0.825145	0.460970	0.401369
	N783	N	0.805684	0.522337	0.404977
	O784	O	0.795810	0.510321	0.396968
	C785	C	0.795948	0.520852	0.399433
	N786	N	0.849403	0.399732	0.397817
	O787	O	0.870192	0.395160	0.405336
	C788	C	0.859255	0.392011	0.399957
	N789	N	0.936341	0.470304	0.457008
	O790	O	0.926361	0.487218	0.457017
	C791	C	0.936978	0.479749	0.460096
	H792	H	0.424411	0.751869	0.156326
	C793	C	0.420328	0.743468	0.156578
	C794	C	0.409054	0.739645	0.151275
	H795	H	0.434553	0.739664	0.166032
	C796	C	0.425949	0.736723	0.161952
	C797	C	0.420389	0.725764	0.162185
	H798	H	0.405092	0.713542	0.157143
	C799	C	0.409253	0.721921	0.156908
	C800	C	0.403235	0.728611	0.151321
	C801	C	0.392148	0.742904	0.140559
	C802	C	0.403049	0.746678	0.145717
	C803	C	0.385837	0.732136	0.140185
	C804	C	0.374599	0.728707	0.134741
	H805	H	0.370734	0.734515	0.130696
	H806	H	0.360004	0.715566	0.130423
	C807	C	0.368634	0.718209	0.134580
	C808	C	0.373805	0.710714	0.139926
	H809	H	0.388861	0.708294	0.149361
	C810	C	0.385005	0.714099	0.145319
	C811	C	0.391406	0.724782	0.145677
	C812	C	0.356834	0.679597	0.140290
	C813	C	0.346359	0.675443	0.134756
	H814	H	0.342848	0.680676	0.130324
	H815	H	0.332810	0.661544	0.130901
	C816	C	0.340814	0.664859	0.135081
	C817	C	0.345408	0.658040	0.140860
	C818	C	0.355939	0.661949	0.146559
	C819	C	0.361408	0.672851	0.146048
	H820	H	0.369417	0.676108	0.150242
	C821	C	0.360510	0.654582	0.152574
	C822	C	0.370640	0.657739	0.158441
	H823	H	0.375380	0.665994	0.158624
	C824	C	0.374763	0.650596	0.164053
	C825	C	0.368640	0.639755	0.163890
	H826	H	0.371865	0.634259	0.168221
	H827	H	0.353936	0.628103	0.158086
	C828	C	0.358707	0.636358	0.158266
	C829	C	0.354497	0.643551	0.152624
	C830	C	0.344194	0.640354	0.146769
	C831	C	0.339658	0.647014	0.141183
	H832	H	0.450090	0.716971	0.183718
	C833	C	0.444375	0.708971	0.184007
	C834	C	0.433426	0.705517	0.178427
	H835	H	0.417709	0.692591	0.174467
	C836	C	0.426066	0.695126	0.178753
	C837	C	0.428985	0.687902	0.184509
	H838	H	0.455735	0.704749	0.194048
	C839	C	0.447497	0.702182	0.189723
	C840	C	0.439877	0.691786	0.190115
	H841	H	0.408586	0.676968	0.174846
	C842	C	0.411083	0.672279	0.179661
	C843	C	0.421421	0.676863	0.185043
	C844	C	0.404030	0.661844	0.180318
	C845	C	0.407268	0.655603	0.186585
	H846	H	0.401776	0.647561	0.187085
	H847	H	0.419967	0.655140	0.196742
	C848	C	0.417331	0.659809	0.191928
	C849	C	0.424525	0.670284	0.191274
	C850	C	0.442386	0.684724	0.196040
	C851	C	0.435122	0.674641	0.196805
	C852	C	0.393728	0.657641	0.174705
	C853	C	0.385000	0.654278	0.169838
	C854	C	0.429692	0.712568	0.172585
	C855	C	0.425806	0.718668	0.167750
	C856	C	0.362694	0.690526	0.140035
	C857	C	0.367738	0.699832	0.139893
	N858	N	0.406326	0.757592	0.144461
	O859	O	0.388566	0.751385	0.136034
	C860	C	0.397616	0.760039	0.138767
	N861	N	0.329425	0.641259	0.136489
	O862	O	0.336886	0.630373	0.145604
	C863	C	0.328098	0.631578	0.139259
	N864	N	0.439871	0.670282	0.203394
	O865	O	0.451841	0.686708	0.202063
	C866	C	0.449610	0.677586	0.206306
	H867	H	0.667881	1.082046	0.890187
	C868	C	0.662369	1.076130	0.893855
	C869	C	0.648230	1.079167	0.897987
	H870	H	0.679732	1.063557	0.891234
	C871	C	0.668932	1.065900	0.894426
	C872	C	0.661445	1.058268	0.899232
	H873	H	0.641846	1.055392	0.907040
	C874	C	0.647495	1.061286	0.903401
	C875	C	0.640461	1.071719	0.902968
	C876	C	0.627264	1.092590	0.901228
	C877	C	0.641183	1.089747	0.897290
	C878	C	0.618978	1.085815	0.906338
	C879	C	0.604839	1.089286	0.910326
	H880	H	0.600113	1.097371	0.909394
	H881	H	0.586474	1.085217	0.918412
	C882	C	0.597266	1.082566	0.915330
	C883	C	0.603672	1.072026	0.916510
	H884	H	0.622415	1.060480	0.913466
	C885	C	0.617619	1.068533	0.912505
	C886	C	0.625719	1.075159	0.907310
	C887	C	0.583578	1.051884	0.931661
	C888	C	0.570416	1.055186	0.936321
	H889	H	0.565280	1.063231	0.935732
	H890	H	0.554340	1.050558	0.945134
	C891	C	0.564374	1.048166	0.941521
	C892	C	0.571097	1.037686	0.942299
	C893	C	0.584370	1.034057	0.937676
	C894	C	0.590264	1.041469	0.932404
	H895	H	0.600314	1.039037	0.928819
	C896	C	0.591207	1.022991	0.938600
	C897	C	0.604212	1.018737	0.934302
	H898	H	0.609592	1.023758	0.930063
	C899	C	0.610427	1.008241	0.935311
	C900	C	0.603505	1.001550	0.940835
	H901	H	0.608329	0.993456	0.941596
	H902	H	0.585398	1.000368	0.949377
	C903	C	0.590797	1.005397	0.945141
	C904	C	0.584526	1.015967	0.944131
	C905	C	0.571452	1.020206	0.948465
	C906	C	0.564879	1.030386	0.947734
	H907	H	0.696316	1.028640	0.892157
	C908	C	0.690557	1.023298	0.896126
	C909	C	0.677973	1.027384	0.900800
	H910	H	0.660904	1.023705	0.909496
	C911	C	0.670485	1.020490	0.905958
	C912	C	0.674941	1.009519	0.906697
	H913	H	0.704844	1.009421	0.893132
	C914	C	0.695263	1.012642	0.896676
	C915	C	0.687690	1.005680	0.901849
	H916	H	0.650142	1.013366	0.916895
	C917	C	0.654555	1.005099	0.917006
	C918	C	0.667213	1.002020	0.912084
	C919	C	0.647468	0.997805	0.922018
	C920	C	0.653129	0.986952	0.922229
	H921	H	0.647640	0.981348	0.926108
	H922	H	0.669893	0.975415	0.917584
	C923	C	0.665444	0.983681	0.917512
	C924	C	0.672556	0.990983	0.912439
	C925	C	0.692133	0.994636	0.902535
	C926	C	0.685250	0.987545	0.907476
	C927	C	0.634635	1.001320	0.926810
	C928	C	0.623550	1.004414	0.930785
	C929	C	0.672797	1.038350	0.900271
	C930	C	0.667850	1.047583	0.899813
	C931	C	0.590126	1.059029	0.926279
	C932	C	0.596146	1.065028	0.921740
	N933	N	0.646031	1.098430	0.892948
	O934	O	0.623225	1.103004	0.899358
	C935	C	0.635211	1.106005	0.894304
	N936	N	0.552394	1.031763	0.952893
	O937	O	0.563152	1.015138	0.954060
	C938	C	0.551776	1.022682	0.956482
	N939	N	0.692442	0.977455	0.906574
	O940	O	0.703665	0.989046	0.898505
	C941	C	0.703098	0.978656	0.901273
	H942	H	0.830406	0.582731	0.896865
	C943	C	0.835041	0.576572	0.900506
	C944	C	0.848864	0.579200	0.904957
	H945	H	0.817127	0.564404	0.897313
	C946	C	0.827689	0.566433	0.900746
	C947	C	0.834029	0.558484	0.905528
	H948	H	0.852437	0.554955	0.913626
	C949	C	0.847673	0.561090	0.910005
	C950	C	0.855498	0.571418	0.909913
	C951	C	0.870293	0.592171	0.908878
	C952	C	0.856706	0.589696	0.904619
	C953	C	0.877494	0.585038	0.913980
	C954	C	0.891354	0.588108	0.918302
	H955	H	0.896710	0.596169	0.917650
	H956	H	0.908475	0.583374	0.926601
	C957	C	0.897890	0.581031	0.923268
	C958	C	0.890683	0.570521	0.924075
	H959	H	0.871583	0.559400	0.920424
	C960	C	0.876995	0.567435	0.919749
	C961	C	0.869944	0.574436	0.914583
	C962	C	0.907951	0.549169	0.938903
	C963	C	0.921021	0.551942	0.943768
	H964	H	0.926768	0.559933	0.943469
	H965	H	0.936177	0.546466	0.952552
	C966	C	0.926215	0.544484	0.948793
	C967	C	0.918712	0.534068	0.949189
	C968	C	0.905489	0.530972	0.944356
	C969	C	0.900476	0.538825	0.939273
	H970	H	0.890505	0.536795	0.935534
	C971	C	0.897816	0.519963	0.944881
	C972	C	0.884794	0.516210	0.940359
	H973	H	0.880037	0.521597	0.936242
	C974	C	0.877788	0.505753	0.940993
	C975	C	0.883879	0.498588	0.946356
	H976	H	0.878437	0.490529	0.946830
	H977	H	0.901344	0.496545	0.954986
	C978	C	0.896576	0.501938	0.950869
	C979	C	0.903654	0.512463	0.950231
	C980	C	0.916766	0.516184	0.954781
	C981	C	0.924089	0.526299	0.954425
	H982	H	0.797327	0.529969	0.897402
	C983	C	0.802277	0.524325	0.901319
	C984	C	0.814836	0.527902	0.906207
	H985	H	0.830860	0.523446	0.914997
	C986	C	0.821286	0.520615	0.911295
	C987	C	0.815785	0.509733	0.911761
	H988	H	0.786997	0.510936	0.897892
	C989	C	0.796570	0.513772	0.901600
	C990	C	0.803086	0.506417	0.906708
	H991	H	0.840095	0.512543	0.922279
	C992	C	0.834925	0.504389	0.922179
	C993	C	0.822395	0.501826	0.917068
	C994	C	0.840937	0.496726	0.927116
	C995	C	0.834280	0.486015	0.927052
	H996	H	0.838935	0.480125	0.930877
	H997	H	0.816851	0.475092	0.922007
	C998	C	0.822060	0.483241	0.922143
	C999	C	0.816026	0.490916	0.917145
	C1000	C	0.797579	0.495469	0.907129
	C1001	C	0.803421	0.488003	0.911987
	C1002	C	0.853683	0.499739	0.932109
	C1003	C	0.864707	0.502428	0.936255
	C1004	C	0.821018	0.538757	0.905969
	C1005	C	0.826768	0.547897	0.905780
	C1006	C	0.902320	0.556766	0.933681
	C1007	C	0.897157	0.563135	0.929241
	N1008	N	0.852972	0.598627	0.900377
	O1009	O	0.875224	0.602615	0.907311
	C1010	C	0.864085	0.605997	0.902100
	N1011	N	0.936400	0.527096	0.959688
	O1012	O	0.924415	0.510579	0.960240
	C1013	C	0.936205	0.517750	0.962966
	N1014	N	0.795359	0.478146	0.910812
	O1015	O	0.785835	0.490354	0.902882
	C1016	C	0.785214	0.479846	0.905443
	C1017	C	0.528276	-0.010826	0.494773
	C1018	C	0.517405	-0.004544	0.499832
	C1019	C	0.510119	-0.007791	0.506335
	H1020	H	0.511733	-0.015842	0.508552
	C1021	C	0.500618	0.000064	0.509782
	C1022	C	0.491135	-0.000646	0.516763
	C1023	C	0.498588	0.010440	0.506934
	C1024	C	0.487745	0.016750	0.511981
	C1025	C	0.505859	0.013687	0.500432
	H1026	H	0.504245	0.021738	0.498214
	C1027	C	0.515337	0.005827	0.496984
	C1028	C	0.524732	0.006551	0.489988
	N1029	N	0.483706	0.009638	0.517771
	N1030	N	0.532246	-0.003703	0.488975
	O1031	O	0.483169	0.025978	0.511329
	O1032	O	0.489960	-0.008299	0.520797
	O1033	O	0.525754	0.014202	0.485946
	O1034	O	0.532906	-0.020044	0.495417
	C1035	C	0.473386	0.012492	0.523841
	C1036	C	0.542486	-0.006489	0.482863
	C1037	C	0.474350	0.022943	0.526715
	C1038	C	0.464304	0.025708	0.532576
	H1039	H	0.483042	0.028850	0.524444
	C1040	C	0.453113	0.018124	0.535662
	H1041	H	0.465037	0.033787	0.534819
	C1042	C	0.452223	0.007667	0.532749
	C1043	C	0.462257	0.004865	0.526887
	H1044	H	0.443672	0.001726	0.535092
	H1045	H	0.461420	-0.003215	0.524677
	C1046	C	0.553194	0.001281	0.479706
	C1047	C	0.562973	-0.001394	0.473745
	H1048	H	0.553896	0.009385	0.481882
	C1049	C	0.562317	-0.011862	0.470846
	H1050	H	0.571194	0.004624	0.471265
	C1051	C	0.551641	-0.019625	0.474068
	C1052	C	0.541809	-0.016975	0.480025
	H1053	H	0.551006	-0.027734	0.471883
	H1054	H	0.533449	-0.022995	0.482392
	C1055	C	0.617411	0.836973	0.397144
	C1056	C	0.616237	0.827944	0.391800
	C1057	C	0.615611	0.816813	0.393006
	H1058	H	0.615941	0.813312	0.398365
	C1059	C	0.614538	0.810507	0.386825
	C1060	C	0.613684	0.798428	0.386144
	C1061	C	0.614074	0.815018	0.379926
	C1062	C	0.612871	0.805999	0.374579
	C1063	C	0.614742	0.826148	0.378718
	H1064	H	0.614420	0.829648	0.373359
	C1065	C	0.615863	0.832450	0.384899
	C1066	C	0.616821	0.844525	0.385570
	N1067	N	0.612708	0.796257	0.378658
	N1068	N	0.617722	0.846708	0.393055
	O1069	O	0.612239	0.806703	0.368106
	O1070	O	0.613715	0.791773	0.390914
	O1071	O	0.616787	0.851174	0.380795
	O1072	O	0.618067	0.836281	0.403617
	C1073	C	0.611865	0.785591	0.375590
	C1074	C	0.618765	0.857386	0.396093
	C1075	C	0.621056	0.777130	0.378633
	C1076	C	0.620389	0.766844	0.375587
	H1077	H	0.628888	0.778612	0.383286
	C1078	C	0.610517	0.764809	0.369483
	H1079	H	0.627561	0.760288	0.377902
	C1080	C	0.601255	0.773318	0.366498
	C1081	C	0.601903	0.783622	0.369521
	H1082	H	0.593606	0.771866	0.361779
	H1083	H	0.594718	0.790120	0.367167
	C1084	C	0.628283	0.865509	0.392645
	C1085	C	0.629304	0.875851	0.395597
	H1086	H	0.635029	0.863711	0.387728
	C1087	C	0.620801	0.878268	0.402021
	H1088	H	0.636718	0.882089	0.392914
	C1089	C	0.611259	0.870085	0.405425
	C1090	C	0.610227	0.859731	0.402500
	H1091	H	0.604705	0.871923	0.410394
	H1092	H	0.602807	0.853505	0.405181
	C1093	C	0.741035	0.550873	0.381621
	C1094	C	0.735474	0.561616	0.378760
	C1095	C	0.720814	0.564230	0.375086
	H1096	H	0.711237	0.558238	0.373790
	C1097	C	0.719316	0.575113	0.373233
	C1098	C	0.705330	0.580714	0.369369
	C1099	C	0.731609	0.582833	0.374946
	C1100	C	0.725941	0.593642	0.372279
	C1101	C	0.746300	0.580219	0.378584
	H1102	H	0.755858	0.586216	0.379898
	C1103	C	0.747785	0.569341	0.380432
	C1104	C	0.761712	0.563832	0.384362
	N1105	N	0.710037	0.591828	0.369030
	N1106	N	0.756831	0.552776	0.384964
	O1107	O	0.733236	0.602231	0.372734
	O1108	O	0.692544	0.576758	0.367026
	O1109	O	0.774593	0.567846	0.386571
	O1110	O	0.733709	0.542288	0.381253
	C1111	C	0.699941	0.600223	0.365929
	C1112	C	0.766538	0.544648	0.388588
	C1113	C	0.699350	0.610411	0.369196
	C1114	C	0.689608	0.618578	0.366216
	H1115	H	0.706320	0.611906	0.374093
	C1116	C	0.680328	0.616736	0.359916
	H1117	H	0.689207	0.626431	0.368780
	C1118	C	0.680990	0.606503	0.356679
	C1119	C	0.690691	0.598297	0.359654
	H1120	H	0.673795	0.605053	0.351826
	H1121	H	0.691105	0.590440	0.357107
	C1122	C	0.775938	0.547379	0.394693
	C1123	C	0.785462	0.539556	0.398172
	H1124	H	0.775852	0.555570	0.396731
	C1125	C	0.785709	0.528859	0.395665
	H1126	H	0.792833	0.541676	0.402868
	C1127	C	0.776157	0.526158	0.389580
	C1128	C	0.766652	0.533976	0.386066
	H1129	H	0.776249	0.517931	0.387587
	H1130	H	0.759551	0.531819	0.381314
	C1131	C	-0.006667	0.489126	0.485599
	C1132	C	-0.001335	0.494486	0.492457
	C1133	C	0.013812	0.493683	0.496153
	H1134	H	0.024060	0.488698	0.494272
	C1135	C	0.014835	0.499757	0.502438
	C1136	C	0.029078	0.500776	0.507662
	C1137	C	0.001652	0.506187	0.504853
	C1138	C	0.006949	0.511531	0.511719
	C1139	C	-0.013491	0.506996	0.501157
	H1140	H	-0.023740	0.511978	0.503038
	C1141	C	-0.014511	0.500923	0.494872
	C1142	C	-0.028765	0.499907	0.489658
	N1143	N	0.023532	0.507946	0.513110
	N1144	N	-0.023250	0.492720	0.484215
	O1145	O	-0.001101	0.517612	0.515410
	O1146	O	0.042622	0.496486	0.507370
	O1147	O	-0.042299	0.504211	0.489952
	O1148	O	0.001349	0.483026	0.481908
	C1149	C	0.033386	0.511131	0.519246
	C1150	C	-0.033194	0.489498	0.478114
	C1151	C	0.032237	0.521646	0.521983
	C1152	C	0.041797	0.524702	0.527925
	H1153	H	0.024087	0.527464	0.519431
	C1154	C	0.052652	0.517339	0.531243
	H1155	H	0.040962	0.532841	0.530047
	C1156	C	0.053712	0.506812	0.528475
	C1157	C	0.044153	0.503718	0.522539
	H1158	H	0.062056	0.501048	0.530976
	H1159	H	0.045050	0.495562	0.520480
	C1160	C	-0.043942	0.496916	0.474816
	C1161	C	-0.053676	0.493778	0.468943
	H1162	H	-0.044703	0.505105	0.476827
	C1163	C	-0.052816	0.483200	0.466245
	H1164	H	-0.062021	0.499545	0.466445
	C1165	C	-0.041946	0.475840	0.469556
	C1166	C	-0.032200	0.478942	0.475435
	H1167	H	-0.041259	0.467665	0.467486
	H1168	H	-0.024044	0.473131	0.477989
	C1169	C	0.483698	0.687259	0.238038
	C1170	C	0.491126	0.683750	0.245043
	C1171	C	0.497068	0.690103	0.250677
	H1172	H	0.496952	0.698875	0.250502
	C1173	C	0.503170	0.684356	0.256554
	C1174	C	0.510505	0.688600	0.263401
	C1175	C	0.503238	0.673067	0.256812
	C1176	C	0.510381	0.669675	0.263925
	C1177	C	0.497374	0.666719	0.251146
	H1178	H	0.497487	0.657948	0.251322
	C1179	C	0.491354	0.672461	0.245238
	C1180	C	0.484318	0.668333	0.238273
	N1181	N	0.514477	0.679391	0.267634
	N1182	N	0.479981	0.677635	0.234182
	O1183	O	0.512252	0.660586	0.266156
	O1184	O	0.512781	0.697943	0.265036
	O1185	O	0.482712	0.659039	0.236410
	O1186	O	0.481191	0.696399	0.236028
	C1187	C	0.521837	0.679943	0.274700
	C1188	C	0.472605	0.677449	0.227110
	C1189	C	0.532912	0.671942	0.277063
	C1190	C	0.540201	0.672644	0.283867
	H1191	H	0.535942	0.665218	0.273594
	C1192	C	0.536673	0.681388	0.288407
	H1193	H	0.548766	0.666439	0.285657
	C1194	C	0.525515	0.689338	0.286013
	C1195	C	0.518101	0.688615	0.279250
	H1196	H	0.522696	0.696086	0.289514
	H1197	H	0.509326	0.694754	0.277573
	C1198	C	0.461767	0.668991	0.225067
	C1199	C	0.454467	0.669005	0.218251
	H1200	H	0.458919	0.662449	0.228783
	C1201	C	0.457722	0.677487	0.213378
	H1202	H	0.446062	0.662477	0.216658
	C1203	C	0.468683	0.685891	0.215446
	C1204	C	0.476115	0.685855	0.222223
	H1205	H	0.471430	0.692460	0.211727
	H1206	H	0.484744	0.692324	0.223659
	C1207	C	0.759818	0.947177	0.885643
	C1208	C	0.765123	0.936253	0.883031
	C1209	C	0.780184	0.933174	0.879810
	H1210	H	0.790395	0.938865	0.878762
	C1211	C	0.781200	0.922241	0.878064
	C1212	C	0.795382	0.916176	0.874649
	C1213	C	0.768062	0.914919	0.879450
	C1214	C	0.773306	0.903940	0.876988
	C1215	C	0.752996	0.917987	0.882647
	H1216	H	0.742799	0.912290	0.883712
	C1217	C	0.752009	0.928906	0.884394
	C1218	C	0.737849	0.934827	0.887886
	N1219	N	0.789876	0.905219	0.874219
	N1220	N	0.743372	0.945739	0.888544
	O1221	O	0.765230	0.895615	0.877237
	O1222	O	0.808847	0.919707	0.872672
	O1223	O	0.724364	0.931195	0.889763
	O1224	O	0.767748	0.955557	0.885418
	C1225	C	0.799751	0.896469	0.871447
	C1226	C	0.733532	0.954152	0.891774
	C1227	C	0.798620	0.886224	0.874682
	C1228	C	0.807980	0.877686	0.871974
	H1229	H	0.790596	0.884940	0.879336
	C1230	C	0.818621	0.879192	0.865996
	H1231	H	0.807096	0.869746	0.874465
	C1232	C	0.819763	0.889495	0.862804
	C1233	C	0.810412	0.898074	0.865504
	H1234	H	0.827985	0.890766	0.858205
	H1235	H	0.811330	0.905980	0.862990
	C1236	C	0.723045	0.951751	0.897660
	C1237	C	0.713250	0.959816	0.900714
	H1238	H	0.722480	0.943620	0.899843
	C1239	C	0.713786	0.970426	0.897989
	H1240	H	0.705019	0.957947	0.905231
	C1241	C	0.724462	0.972803	0.892140
	C1242	C	0.734271	0.964744	0.889057
	H1243	H	0.724996	0.980964	0.889989
	H1244	H	0.742257	0.966637	0.884478
	C1245	C	0.616844	0.152966	0.879242
	C1246	C	0.621788	0.163876	0.876325
	C1247	C	0.611760	0.171703	0.873135
	H1248	H	0.598341	0.170559	0.872373
	C1249	C	0.620240	0.181106	0.870990
	C1250	C	0.613450	0.191005	0.867394
	C1251	C	0.637505	0.182615	0.872013
	C1252	C	0.642360	0.193601	0.869182
	C1253	C	0.647551	0.174752	0.875159
	H1254	H	0.660972	0.175894	0.875916
	C1255	C	0.639094	0.165312	0.877258
	C1256	C	0.645898	0.155309	0.880733
	N1257	N	0.627362	0.198179	0.866463
	N1258	N	0.631889	0.148246	0.881791
	O1259	O	0.656113	0.197837	0.869144
	O1260	O	0.599129	0.192714	0.865629
	O1261	O	0.660264	0.153474	0.882365
	O1262	O	0.603000	0.148860	0.879421
	C1263	C	0.626366	0.208691	0.863155
	C1264	C	0.632778	0.137658	0.884997
	C1265	C	0.616311	0.210191	0.857068
	C1266	C	0.615380	0.220375	0.853855
	H1267	H	0.609429	0.203405	0.854815
	C1268	C	0.624331	0.229234	0.856687
	H1269	H	0.607662	0.221569	0.849126
	C1270	C	0.634332	0.227661	0.862807
	C1271	C	0.635386	0.217469	0.866013
	H1272	H	0.641355	0.234425	0.865025
	H1273	H	0.643161	0.216310	0.870718
	C1274	C	0.646190	0.130836	0.883342
	C1275	C	0.646866	0.120524	0.886392
	H1276	H	0.655887	0.133530	0.879616
	C1277	C	0.634289	0.116895	0.891180
	H1278	H	0.657160	0.115180	0.885095
	C1279	C	0.620971	0.123831	0.892853
	C1280	C	0.620187	0.134122	0.889781
	H1281	H	0.611155	0.121119	0.896523
	H1282	H	0.609833	0.139398	0.891075
	C1283	C	0.863789	0.694111	0.877786
	C1284	C	0.867953	0.683164	0.880745
	C1285	C	0.857245	0.675257	0.883633
	H1286	H	0.843761	0.676343	0.884062
	C1287	C	0.865120	0.665838	0.885909
	C1288	C	0.857510	0.655786	0.889159
	C1289	C	0.882495	0.664459	0.885387
	C1290	C	0.886664	0.653516	0.888351
	C1291	C	0.893194	0.672345	0.882467
	H1292	H	0.906673	0.671249	0.882022
	C1293	C	0.885303	0.681730	0.880141
	C1294	C	0.892858	0.691661	0.876706
	N1295	N	0.871111	0.648716	0.890483
	N1296	N	0.879270	0.698754	0.875417
	O1297	O	0.900336	0.649443	0.888851
	O1298	O	0.842871	0.653923	0.890452
	O1299	O	0.907462	0.693447	0.875299
	O1300	O	0.850158	0.698271	0.877416
	C1301	C	0.869343	0.638006	0.893471
	C1302	C	0.880909	0.709187	0.872010
	C1303	C	0.881089	0.634205	0.898452
	C1304	C	0.879408	0.623793	0.901307
	H1305	H	0.891485	0.639370	0.900069
	C1306	C	0.866020	0.617005	0.899219
	H1307	H	0.888566	0.620873	0.905133
	C1308	C	0.854303	0.620898	0.894233
	C1309	C	0.855882	0.631322	0.891396
	H1310	H	0.843958	0.615670	0.892612
	H1311	H	0.846846	0.634203	0.887510
	C1312	C	0.871475	0.717929	0.874496
	C1313	C	0.872990	0.728013	0.871144
	H1314	H	0.862984	0.716825	0.879017
	C1315	C	0.883895	0.729519	0.865250
	H1316	H	0.865608	0.734737	0.873064
	C1317	C	0.893321	0.720711	0.862811
	C1318	C	0.891916	0.710634	0.866170
	H1319	H	0.901747	0.721854	0.858260
	H1320	H	0.899141	0.703879	0.864202
	C1321	C	0.739631	0.448159	0.884244
	C1322	C	0.728954	0.438250	0.883049
	C1323	C	0.723220	0.433817	0.876615
	H1324	H	0.726010	0.437462	0.871420
	C1325	C	0.713798	0.424295	0.877337
	C1326	C	0.706128	0.417301	0.871617
	C1327	C	0.710301	0.419573	0.884026
	C1328	C	0.700247	0.409415	0.882840
	C1329	C	0.715958	0.424028	0.890461
	H1330	H	0.713267	0.420342	0.895653
	C1331	C	0.725454	0.433513	0.889732
	C1332	C	0.733728	0.440207	0.895445
	N1333	N	0.698391	0.408427	0.875275
	N1334	N	0.742232	0.448784	0.891790
	O1335	O	0.694708	0.403242	0.887333
	O1336	O	0.706442	0.418734	0.865190
	O1337	O	0.733350	0.438753	0.901870
	O1338	O	0.745118	0.454390	0.879776
	C1339	C	0.690497	0.399336	0.871775
	C1340	C	0.752821	0.456716	0.895243
	C1341	C	0.692247	0.388911	0.874649
	C1342	C	0.684858	0.380065	0.871218
	H1343	H	0.699560	0.387673	0.879477
	C1344	C	0.675588	0.381442	0.864872
	H1345	H	0.686259	0.371983	0.873416
	C1346	C	0.673818	0.391918	0.862042
	C1347	C	0.681195	0.400800	0.865462
	H1348	H	0.666716	0.393085	0.857141
	H1349	H	0.679758	0.408843	0.863232
	C1350	C	0.762744	0.453721	0.901122
	C1351	C	0.773179	0.461343	0.904416
	H1352	H	0.762386	0.445471	0.903104
	C1353	C	0.773938	0.472069	0.901906
	H1354	H	0.780861	0.459047	0.908971
	C1355	C	0.763934	0.475015	0.896021
	C1356	C	0.753470	0.467408	0.892706
	H1357	H	0.764389	0.483272	0.894038
	H1358	H	0.745704	0.469788	0.888210
	H1359	H	0.331924	1.083123	0.607784
	C1360	C	0.337085	1.077081	0.604206
	C1361	C	0.350695	1.080113	0.599680
	H1362	H	0.320163	1.064377	0.607594
	C1363	C	0.330572	1.066709	0.604108
	C1364	C	0.337576	1.058922	0.599400
	H1365	H	0.356301	1.055908	0.591295
	C1366	C	0.351026	1.061920	0.594859
	C1367	C	0.357999	1.072492	0.594806
	C1368	C	0.371001	1.093733	0.595502
	C1369	C	0.357636	1.090870	0.599848
	C1370	C	0.378846	1.086769	0.590487
	C1371	C	0.392464	1.090238	0.586087
	H1372	H	0.397115	1.098485	0.586607
	H1373	H	0.410039	1.085953	0.577815
	C1374	C	0.399640	1.083308	0.581208
	C1375	C	0.393348	1.072550	0.580576
	H1376	H	0.375199	1.060848	0.584437
	C1377	C	0.379904	1.069072	0.584979
	C1378	C	0.372216	1.075913	0.590059
	C1379	C	0.412361	1.051655	0.565916
	C1380	C	0.425193	1.054835	0.560980
	H1381	H	0.430334	1.062991	0.561212
	H1382	H	0.440693	1.049848	0.552150
	C1383	C	0.430914	1.047555	0.555969
	C1384	C	0.424185	1.036927	0.555657
	C1385	C	0.411241	1.033416	0.560569
	C1386	C	0.405670	1.041095	0.565637
	H1387	H	0.395876	1.038758	0.569431
	C1388	C	0.404397	1.022189	0.560129
	C1389	C	0.391685	1.018037	0.564729
	H1390	H	0.386550	1.023265	0.568840
	C1391	C	0.385449	1.007386	0.564178
	C1392	C	0.392053	1.000424	0.558826
	H1393	H	0.387216	0.992211	0.558417
	H1394	H	0.409617	0.998930	0.550125
	C1395	C	0.404469	1.004165	0.554235
	C1396	C	0.410753	1.014892	0.554782
	C1397	C	0.423518	1.019032	0.550138
	C1398	C	0.430072	1.029359	0.550419
	H1399	H	0.302852	1.029389	0.607750
	C1400	C	0.308231	1.023890	0.603860
	C1401	C	0.320659	1.027799	0.598955
	H1402	H	0.337128	1.023782	0.590184
	C1403	C	0.327662	1.020700	0.593900
	C1404	C	0.322842	1.009691	0.593481
	H1405	H	0.293705	1.010120	0.607343
	C1406	C	0.303182	1.013206	0.603625
	C1407	C	0.310244	1.006043	0.598546
	H1408	H	0.347202	1.013129	0.582957
	C1409	C	0.342516	1.004857	0.583089
	C1410	C	0.330032	1.001972	0.588208
	C1411	C	0.349082	0.997368	0.578184
	C1412	C	0.343061	0.986505	0.578295
	H1413	H	0.348147	0.980748	0.574498
	H1414	H	0.326181	0.975149	0.583382
	C1415	C	0.330904	0.983418	0.583212
	C1416	C	0.324305	0.990920	0.588174
	C1417	C	0.305384	0.994977	0.598165
	C1418	C	0.311745	0.987684	0.593332
	C1419	C	0.361732	1.000705	0.573170
	C1420	C	0.372612	1.003678	0.568983
	C1421	C	0.326119	1.038808	0.599141
	C1422	C	0.331168	1.048113	0.599270
	C1423	C	0.406162	1.059073	0.571110
	C1424	C	0.400477	1.065309	0.575498
	N1425	N	0.353129	1.099746	0.603967
	O1426	O	0.375014	1.104362	0.596884
	C1427	C	0.363587	1.107459	0.602084
	N1428	N	0.442193	1.030587	0.545063
	O1429	O	0.431478	1.013721	0.544629
	C1430	C	0.442632	1.021280	0.541797
	N1431	N	0.304177	0.977649	0.594526
	O1432	O	0.293826	0.989577	0.602419
	C1433	C	0.293817	0.979084	0.599883
	H1434	H	0.635329	0.727196	0.372260
	C1435	C	0.630691	0.722001	0.367996
	C1436	C	0.619231	0.726355	0.362991
	H1437	H	0.644714	0.708109	0.371300
	C1438	C	0.635898	0.711442	0.367470
	C1439	C	0.629688	0.704801	0.361833
	H1440	H	0.613582	0.703934	0.352589
	C1441	C	0.618248	0.709082	0.356866
	C1442	C	0.612643	0.719875	0.357242
	C1443	C	0.602789	0.741568	0.358600
	C1444	C	0.613921	0.737378	0.363485
	C1445	C	0.595578	0.735723	0.352802
	C1446	C	0.584091	0.740462	0.347953
	H1447	H	0.580626	0.748846	0.348722
	H1448	H	0.568711	0.738194	0.338609
	C1449	C	0.577470	0.734573	0.342345
	C1450	C	0.582179	0.723613	0.341404
	H1451	H	0.597004	0.710514	0.345457
	C1452	C	0.593516	0.718883	0.346236
	C1453	C	0.600586	0.724637	0.352054
	C1454	C	0.566027	0.705957	0.324361
	C1455	C	0.554688	0.710282	0.319244
	H1456	H	0.549520	0.718257	0.320106
	H1457	H	0.541955	0.707558	0.309252
	C1458	C	0.550499	0.704350	0.313245
	C1459	C	0.557363	0.693993	0.312092
	C1460	C	0.568615	0.689273	0.317204
	C1461	C	0.572680	0.695599	0.323288
	H1462	H	0.581357	0.692386	0.327220
	C1463	C	0.575436	0.678297	0.315892
	C1464	C	0.586082	0.672860	0.320736
	H1465	H	0.589421	0.676812	0.325737
	C1466	C	0.592407	0.662501	0.319338
	C1467	C	0.588085	0.657201	0.312822
	H1468	H	0.593018	0.649221	0.311751
	H1469	H	0.574255	0.658239	0.302979
	C1470	C	0.577691	0.662218	0.307964
	C1471	C	0.571228	0.672620	0.309384
	C1472	C	0.560340	0.677991	0.304542
	C1473	C	0.553422	0.687967	0.305732
	H1474	H	0.659464	0.673142	0.369081
	C1475	C	0.655236	0.668637	0.364419
	C1476	C	0.644523	0.673699	0.359351
	H1477	H	0.630837	0.671853	0.349466
	C1478	C	0.639014	0.667898	0.353292
	C1479	C	0.643723	0.657093	0.352005
	H1480	H	0.668279	0.654149	0.367191
	C1481	C	0.660106	0.658113	0.363360
	C1482	C	0.654552	0.652259	0.357267
	H1483	H	0.623421	0.663147	0.340620
	C1484	C	0.627672	0.654867	0.340207
	C1485	C	0.638158	0.650711	0.345658
	C1486	C	0.622604	0.648651	0.334268
	C1487	C	0.628085	0.637795	0.333658
	H1488	H	0.624135	0.633012	0.329074
	H1489	H	0.642648	0.625215	0.338485
	C1490	C	0.638325	0.633488	0.338872
	C1491	C	0.643497	0.639723	0.344845
	C1492	C	0.659301	0.641397	0.356021
	C1493	C	0.654253	0.635267	0.350251
	C1494	C	0.612051	0.653282	0.328926
	C1495	C	0.603047	0.657422	0.324457
	C1496	C	0.639382	0.684585	0.360368
	C1497	C	0.634971	0.693880	0.361138
	C1498	C	0.570877	0.712102	0.330494
	C1499	C	0.575694	0.717421	0.335577
	N1500	N	0.618405	0.745404	0.368351
	O1501	O	0.600231	0.752213	0.360357
	C1502	C	0.610178	0.753951	0.366331
	N1503	N	0.543315	0.690652	0.299936
	O1504	O	0.554716	0.674392	0.297972
	C1505	C	0.544458	0.682542	0.295505
	N1506	N	0.661281	0.625049	0.350823
	O1507	O	0.669512	0.635121	0.360222
	C1508	C	0.670121	0.625295	0.356712
	H1509	H	0.157766	0.581708	0.608385
	C1510	C	0.153963	0.575883	0.604337
	C1511	C	0.142192	0.579115	0.599089
	H1512	H	0.169484	0.563122	0.608344
	C1513	C	0.160456	0.565602	0.604319
	C1514	C	0.155294	0.558114	0.598966
	H1515	H	0.139738	0.555509	0.589682
	C1516	C	0.143591	0.561290	0.593744
	C1517	C	0.136664	0.571771	0.593600
	C1518	C	0.124019	0.592944	0.593991
	C1519	C	0.135444	0.589824	0.599102
	C1520	C	0.117873	0.586223	0.588393
	C1521	C	0.106070	0.589894	0.583277
	H1522	H	0.101596	0.598134	0.583654
	H1523	H	0.091301	0.585940	0.573998
	C1524	C	0.100347	0.583149	0.577921
	C1525	C	0.106330	0.572381	0.577507
	H1526	H	0.122532	0.560493	0.582206
	C1527	C	0.118065	0.568729	0.582579
	C1528	C	0.124254	0.575383	0.588152
	C1529	C	0.090254	0.551608	0.562044
	C1530	C	0.078308	0.554691	0.556780
	H1531	H	0.073352	0.562828	0.556851
	H1532	H	0.064050	0.549551	0.547611
	C1533	C	0.073172	0.547336	0.551670
	C1534	C	0.079623	0.536723	0.551580
	C1535	C	0.091720	0.533320	0.556809
	C1536	C	0.096706	0.541074	0.561971
	H1537	H	0.105818	0.538807	0.566014
	C1538	C	0.098312	0.522111	0.556594
	C1539	C	0.110219	0.518058	0.561501
	H1540	H	0.114911	0.523359	0.565690
	C1541	C	0.116203	0.507413	0.561157
	C1542	C	0.110190	0.500360	0.555700
	H1543	H	0.114840	0.492156	0.555450
	H1544	H	0.093880	0.498699	0.546618
	C1545	C	0.098573	0.504004	0.550811
	C1546	C	0.092529	0.514719	0.551155
	C1547	C	0.080550	0.518743	0.546211
	C1548	C	0.074259	0.529053	0.546270
	H1549	H	0.189778	0.529211	0.607570
	C1550	C	0.185345	0.523787	0.603398
	C1551	C	0.173435	0.527543	0.598315
	H1552	H	0.158567	0.523506	0.589051
	C1553	C	0.167656	0.520542	0.592896
	C1554	C	0.173234	0.509782	0.592275
	H1555	H	0.200183	0.510374	0.606829
	C1556	C	0.191096	0.513344	0.602977
	C1557	C	0.185273	0.506281	0.597527
	H1558	H	0.150515	0.513066	0.581212
	C1559	C	0.155604	0.504965	0.581246
	C1560	C	0.167362	0.502179	0.586608
	C1561	C	0.150291	0.497599	0.575961
	C1562	C	0.156853	0.486959	0.575935
	H1563	H	0.152728	0.481295	0.571847
	H1564	H	0.173478	0.475882	0.581145
	C1565	C	0.168332	0.483974	0.581083
	C1566	C	0.173708	0.491362	0.586413
	C1567	C	0.190887	0.495463	0.596939
	C1568	C	0.185651	0.488257	0.591777
	C1569	C	0.138389	0.500853	0.570693
	C1570	C	0.128201	0.503787	0.566268
	C1571	C	0.167306	0.538309	0.598663
	C1572	C	0.161866	0.547442	0.598851
	C1573	C	0.095724	0.559075	0.567389
	C1574	C	0.100534	0.565279	0.572012
	N1575	N	0.138521	0.598441	0.603708
	O1576	O	0.119866	0.603508	0.595348
	C1577	C	0.129188	0.606279	0.601337
	N1578	N	0.062865	0.530123	0.540668
	O1579	O	0.073168	0.513291	0.540600
	C1580	C	0.062576	0.520743	0.537488
	N1581	N	0.193665	0.478460	0.592860
	O1582	O	0.202210	0.490255	0.601277
	C1583	C	0.203225	0.479955	0.598459
	H1584	H	0.912027	0.747951	0.843724
	C1585	C	0.908365	0.756375	0.843502
	C1586	C	0.897592	0.760303	0.848947
	H1587	H	0.922210	0.760023	0.833833
	C1588	C	0.914000	0.763044	0.838024
	C1589	C	0.908962	0.774029	0.837825
	H1590	H	0.894590	0.786380	0.843040
	C1591	C	0.898379	0.777986	0.843257
	C1592	C	0.892394	0.771381	0.848962
	C1593	C	0.880806	0.757157	0.859807
	C1594	C	0.891460	0.753332	0.854584
	C1595	C	0.875247	0.768001	0.860285
	C1596	C	0.864456	0.771537	0.865856
	H1597	H	0.860216	0.765727	0.869884
	H1598	H	0.851222	0.784889	0.870454
	C1599	C	0.859461	0.782155	0.866184
	C1600	C	0.865173	0.789665	0.860879
	H1601	H	0.880104	0.791968	0.851317
	C1602	C	0.875811	0.786151	0.855324
	C1603	C	0.881189	0.775340	0.854785
	C1604	C	0.851876	0.821289	0.861222
	C1605	C	0.840996	0.825339	0.866632
	H1606	H	0.836156	0.819884	0.870752
	H1607	H	0.828424	0.839337	0.870664
	C1608	C	0.836731	0.836102	0.866578
	C1609	C	0.843034	0.843205	0.861198
	C1610	C	0.854056	0.839418	0.855644
	C1611	C	0.858184	0.828325	0.855870
	H1612	H	0.866499	0.825148	0.851772
	C1613	C	0.860440	0.847096	0.850054
	C1614	C	0.871154	0.844086	0.844343
	H1615	H	0.874972	0.835713	0.843958
	C1616	C	0.876968	0.851517	0.839125
	C1617	C	0.872068	0.862515	0.839556
	H1618	H	0.876601	0.868232	0.835532
	H1619	H	0.857746	0.874147	0.845414
	C1620	C	0.861616	0.865777	0.845039
	C1621	C	0.855651	0.858289	0.850266
	C1622	C	0.844671	0.861331	0.855930
	C1623	C	0.838515	0.854397	0.861133
	H1624	H	0.934504	0.782016	0.815071
	C1625	C	0.931297	0.790505	0.815389
	C1626	C	0.922810	0.794377	0.821590
	H1627	H	0.912153	0.808231	0.826796
	C1628	C	0.918600	0.805375	0.822028
	C1629	C	0.922486	0.812857	0.816486
	H1630	H	0.941822	0.794696	0.805110
	C1631	C	0.935333	0.797545	0.809875
	C1632	C	0.931107	0.808620	0.810311
	H1633	H	0.905308	0.824201	0.826975
	C1634	C	0.909295	0.829282	0.822498
	C1635	C	0.918168	0.824529	0.816737
	C1636	C	0.905330	0.840329	0.822593
	C1637	C	0.910462	0.847069	0.816757
	H1638	H	0.907435	0.855601	0.816854
	H1639	H	0.923043	0.847722	0.806528
	C1640	C	0.919110	0.842701	0.811047
	C1641	C	0.922954	0.831563	0.810889
	C1642	C	0.935081	0.816088	0.804727
	C1643	C	0.931583	0.826947	0.804863
	C1644	C	0.896030	0.844615	0.828478
	C1645	C	0.887539	0.847949	0.833422
	C1646	C	0.918473	0.787175	0.827319
	C1647	C	0.914390	0.781055	0.832161
	C1648	C	0.856378	0.810168	0.861196
	C1649	C	0.860276	0.800701	0.861126
	N1650	N	0.894333	0.742424	0.855849
	O1651	O	0.876860	0.748684	0.864346
	C1652	C	0.885562	0.740010	0.861588
	N1653	N	0.828007	0.860059	0.865717
	O1654	O	0.838090	0.871390	0.857227
	C1655	C	0.828052	0.869947	0.863248
	N1656	N	0.937336	0.831691	0.798496
	O1657	O	0.942920	0.813934	0.798309
	C1658	C	0.943812	0.823811	0.794802
	H1659	H	0.599104	0.248092	0.834929
	C1660	C	0.602266	0.256652	0.835064
	C1661	C	0.611967	0.260570	0.840878
	H1662	H	0.589598	0.260503	0.825217
	C1663	C	0.597007	0.263509	0.829685
	C1664	C	0.601355	0.274677	0.829964
	H1665	H	0.614177	0.287149	0.835899
	C1666	C	0.610905	0.278613	0.835752
	C1667	C	0.616477	0.271815	0.841369
	C1668	C	0.627274	0.257244	0.852023
	C1669	C	0.617627	0.253428	0.846440
	C1670	C	0.632134	0.268229	0.852965
	C1671	C	0.641878	0.271740	0.858890
	H1672	H	0.645887	0.265796	0.862819
	H1673	H	0.653535	0.285215	0.864232
	C1674	C	0.646124	0.282499	0.859685
	C1675	C	0.640701	0.290183	0.854508
	H1676	H	0.627067	0.292643	0.844686
	C1677	C	0.631147	0.286695	0.848593
	C1678	C	0.626559	0.275745	0.847572
	C1679	C	0.650941	0.322305	0.856440
	C1680	C	0.660448	0.326399	0.862301
	H1681	H	0.665279	0.320821	0.866289
	H1682	H	0.670631	0.340634	0.867293
	C1683	C	0.663399	0.337360	0.862851
	C1684	C	0.657088	0.344628	0.857650
	C1685	C	0.647443	0.340801	0.851649
	C1686	C	0.644650	0.329501	0.851258
	H1687	H	0.637394	0.326287	0.846809
	C1688	C	0.640998	0.348653	0.846264
	C1689	C	0.631492	0.345645	0.840175
	H1690	H	0.628690	0.337140	0.839328
	C1691	C	0.625581	0.353255	0.835171
	C1692	C	0.629161	0.364428	0.836206
	H1693	H	0.624574	0.370278	0.832339
	H1694	H	0.641239	0.376204	0.842917
	C1695	C	0.638401	0.367695	0.842073
	C1696	C	0.644409	0.360041	0.847103
	C1697	C	0.654059	0.363114	0.853184
	C1698	C	0.660184	0.356038	0.858230
	H1699	H	0.577506	0.283571	0.807142
	C1700	C	0.579788	0.292158	0.807897
	C1701	C	0.587463	0.295806	0.814350
	H1702	H	0.596334	0.309606	0.820304
	C1703	C	0.590497	0.306928	0.815349
	C1704	C	0.586152	0.314759	0.810144
	H1705	H	0.569427	0.296866	0.797752
	C1706	C	0.575330	0.299538	0.802700
	C1707	C	0.578311	0.310743	0.803714
	H1708	H	0.601613	0.325834	0.821277
	C1709	C	0.597299	0.331161	0.817035
	C1710	C	0.589217	0.326579	0.810993
	C1711	C	0.600061	0.342358	0.817704
	C1712	C	0.594502	0.349422	0.812178
	H1713	H	0.596603	0.358065	0.812718
	H1714	H	0.582351	0.350504	0.801919
	C1715	C	0.586606	0.345228	0.806205
	C1716	C	0.583950	0.333955	0.805475
	C1717	C	0.573752	0.318570	0.798495
	C1718	C	0.576045	0.329552	0.799191
	C1719	C	0.608530	0.346483	0.823872
	C1720	C	0.616178	0.349717	0.829095
	C1721	C	0.592097	0.288271	0.819784
	C1722	C	0.596197	0.281922	0.824440
	C1723	C	0.647729	0.310988	0.855807
	C1724	C	0.644741	0.301373	0.855260
	N1725	N	0.615058	0.242368	0.847332
	O1726	O	0.630916	0.248610	0.856413
	C1727	C	0.623023	0.239862	0.853213
	N1728	N	0.669074	0.361827	0.863379
	O1729	O	0.659062	0.373380	0.855133
	C1730	C	0.668145	0.371923	0.861377
	N1731	N	0.569901	0.334658	0.793070
	O1732	O	0.566304	0.316703	0.791965
	C1733	C	0.564363	0.326871	0.788974
	C1734	C	0.235594	0.949006	0.616520
	C1735	C	0.229488	0.938298	0.619402
	C1736	C	0.214358	0.935675	0.622838
	H1737	H	0.204732	0.941625	0.623871
	C1738	C	0.212474	0.924842	0.624830
	C1739	C	0.197982	0.919248	0.628540
	C1740	C	0.224850	0.917181	0.623467
	C1741	C	0.218759	0.906427	0.626233
	C1742	C	0.239990	0.919800	0.620053
	H1743	H	0.249609	0.913847	0.619012
	C1744	C	0.241860	0.930626	0.618068
	C1745	C	0.256349	0.936130	0.614331
	N1746	N	0.202527	0.908203	0.629178
	N1747	N	0.251767	0.947136	0.613520
	O1748	O	0.226011	0.897904	0.626061
	O1749	O	0.184972	0.923162	0.630570
	O1750	O	0.269397	0.932151	0.612401
	O1751	O	0.228389	0.957545	0.616637
	C1752	C	0.192120	0.899845	0.632358
	C1753	C	0.262170	0.955269	0.610080
	C1754	C	0.191978	0.889426	0.629411
	C1755	C	0.182072	0.881265	0.632510
	H1756	H	0.199453	0.887729	0.624673
	C1757	C	0.172143	0.883347	0.638606
	H1758	H	0.182059	0.873228	0.630200
	C1759	C	0.172295	0.893822	0.641504
	C1760	C	0.182180	0.902017	0.638414
	H1761	H	0.164594	0.895459	0.646196
	H1762	H	0.182225	0.910051	0.640716
	C1763	C	0.272293	0.952536	0.604185
	C1764	C	0.282527	0.960364	0.600906
	H1765	H	0.272219	0.944334	0.602161
	C1766	C	0.282795	0.971064	0.603412
	H1767	H	0.290460	0.958244	0.596376
	C1768	C	0.272512	0.973767	0.609282
	C1769	C	0.262280	0.965948	0.612591
	H1770	H	0.272602	0.981997	0.611272
	H1771	H	0.254608	0.968105	0.617182
	C1772	C	0.382343	0.156173	0.614587
	C1773	C	0.377370	0.167109	0.617261
	C1774	C	0.387533	0.175547	0.619739
	H1775	H	0.401118	0.174969	0.620003
	C1776	C	0.378964	0.184777	0.621858
	C1777	C	0.385859	0.195192	0.624791
	C1778	C	0.361475	0.185545	0.621485
	C1779	C	0.356546	0.196526	0.624110
	C1780	C	0.351306	0.177084	0.619040
	H1781	H	0.337720	0.177659	0.618780
	C1782	C	0.359866	0.167826	0.616960
	C1783	C	0.352983	0.157330	0.614136
	N1784	N	0.371759	0.201883	0.626032
	N1785	N	0.367130	0.150707	0.612813
	O1786	O	0.342590	0.200204	0.624573
	O1787	O	0.400379	0.197580	0.625896
	O1788	O	0.338458	0.154859	0.613128
	O1789	O	0.396335	0.152572	0.614038
	C1790	C	0.372781	0.212662	0.628902
	C1791	C	0.366204	0.139852	0.610065
	C1792	C	0.384213	0.215059	0.634404
	C1793	C	0.385192	0.225494	0.637203
	H1794	H	0.392142	0.208755	0.636539
	C1795	C	0.374862	0.233718	0.634530
	H1796	H	0.394027	0.227290	0.641472
	C1797	C	0.363493	0.231247	0.628997
	C1798	C	0.362414	0.220809	0.626205
	H1799	H	0.355476	0.237579	0.626938
	H1800	H	0.353577	0.218991	0.621948
	C1801	C	0.353409	0.132762	0.612392
	C1802	C	0.352672	0.122213	0.609770
	H1803	H	0.344236	0.135434	0.616303
	C1804	C	0.364585	0.118593	0.604756
	H1805	H	0.342844	0.116674	0.611583
	C1806	C	0.377298	0.125785	0.602417
	C1807	C	0.378129	0.136324	0.605049
	H1808	H	0.386599	0.123088	0.598562
	H1809	H	0.388003	0.141798	0.603226
	C1810	C	0.121788	0.658501	0.608604
	C1811	C	0.121106	0.667694	0.613833
	C1812	C	0.119512	0.678733	0.612490
	H1813	H	0.118495	0.682019	0.607091
	C1814	C	0.119338	0.685245	0.618592
	C1815	C	0.117833	0.697298	0.619124
	C1816	C	0.120643	0.681013	0.625544
	C1817	C	0.120055	0.690195	0.630778
	C1818	C	0.122246	0.669976	0.626888
	H1819	H	0.123278	0.666691	0.632287
	C1820	C	0.122442	0.663469	0.620786
	C1821	C	0.124001	0.651423	0.620266
	N1822	N	0.118366	0.699747	0.626581
	N1823	N	0.123566	0.648964	0.612810
	O1824	O	0.120915	0.689732	0.637254
	O1825	O	0.116367	0.703735	0.614272
	O1826	O	0.125288	0.644987	0.625129
	O1827	O	0.121075	0.658952	0.602124
	C1828	C	0.117440	0.710491	0.629511
	C1829	C	0.124881	0.638225	0.609905
	C1830	C	0.108993	0.712253	0.636028
	C1831	C	0.108163	0.722649	0.638884
	H1832	H	0.102920	0.705550	0.638813
	C1833	C	0.115755	0.731463	0.635291
	H1834	H	0.101594	0.723950	0.643923
	C1835	C	0.124179	0.729626	0.628763
	C1836	C	0.125049	0.719242	0.625891
	H1837	H	0.130023	0.736421	0.625968
	H1838	H	0.131652	0.717954	0.620866
	C1839	C	0.135461	0.630664	0.613156
	C1840	C	0.136770	0.620281	0.610320
	H1841	H	0.142808	0.632914	0.617819
	C1842	C	0.127556	0.617252	0.604208
	H1843	H	0.144981	0.614419	0.612813
	C1844	C	0.116956	0.624870	0.600990
	C1845	C	0.115606	0.635265	0.603811
	H1846	H	0.109798	0.622646	0.596262
	H1847	H	0.107361	0.641057	0.601289
	C1848	C	0.249251	0.448370	0.619351
	C1849	C	0.260698	0.438935	0.620380
	C1850	C	0.267154	0.434641	0.626726
	H1851	H	0.264376	0.438022	0.631969
	C1852	C	0.277356	0.425646	0.625848
	C1853	C	0.286098	0.418998	0.631439
	C1854	C	0.280851	0.421262	0.619099
	C1855	C	0.291930	0.411655	0.620116
	C1856	C	0.274456	0.425576	0.612752
	H1857	H	0.277187	0.422173	0.607511
	C1858	C	0.264238	0.434557	0.613634
	C1859	C	0.255266	0.441050	0.608042
	N1860	N	0.294502	0.410682	0.627646
	N1861	N	0.246384	0.449160	0.611827
	O1862	O	0.297664	0.405844	0.615538
	O1863	O	0.286061	0.420272	0.637874
	O1864	O	0.255465	0.439790	0.601605
	O1865	O	0.243434	0.454163	0.623919
	C1866	C	0.304001	0.402200	0.630989
	C1867	C	0.235587	0.456976	0.608488
	C1868	C	0.303359	0.391696	0.628185
	C1869	C	0.312455	0.383440	0.631427
	H1870	H	0.295599	0.389946	0.623550
	C1871	C	0.322380	0.385521	0.637512
	H1872	H	0.311851	0.375332	0.629238
	C1873	C	0.322990	0.396075	0.640273
	C1874	C	0.313894	0.404358	0.637049
	H1875	H	0.330617	0.397698	0.644980
	H1876	H	0.314479	0.412462	0.639233
	C1877	C	0.225956	0.454081	0.602483
	C1878	C	0.215494	0.461641	0.599252
	H1879	H	0.226581	0.445962	0.600342
	C1880	C	0.214393	0.472198	0.601959
	H1881	H	0.208072	0.459429	0.594590
	C1882	C	0.224056	0.475033	0.607987
	C1883	C	0.234566	0.467497	0.611228
	H1884	H	0.223345	0.483161	0.610124
	H1885	H	0.242108	0.469828	0.615818
	C1886	C	-0.031552	0.816834	0.761200
	C1887	C	-0.020915	0.819693	0.754788
	C1888	C	-0.019750	0.814401	0.748209
	H1889	H	-0.027168	0.807235	0.746967
	C1890	C	-0.008250	0.818942	0.743365
	C1891	C	-0.003712	0.815236	0.735957
	C1892	C	0.001408	0.828116	0.744971
	C1893	C	0.012701	0.830517	0.738657
	C1894	C	0.000094	0.833476	0.751533
	H1895	H	0.007586	0.840605	0.752789
	C1896	C	-0.011423	0.828949	0.756389
	C1897	C	-0.015822	0.832430	0.763890
	N1898	N	0.009176	0.822384	0.733470
	N1899	N	-0.027762	0.824711	0.766499
	O1900	O	0.022894	0.837774	0.738040
	O1901	O	-0.009736	0.807732	0.732680
	O1902	O	-0.010418	0.840123	0.767163
	O1903	O	-0.041406	0.809385	0.761844
	C1904	C	0.017928	0.821199	0.726719
	C1905	C	-0.034752	0.824580	0.773650
	C1906	C	0.023897	0.830290	0.722916
	C1907	C	0.032387	0.829031	0.716387
	H1908	H	0.021722	0.838327	0.724993
	C1909	C	0.035016	0.818682	0.713537
	H1910	H	0.036933	0.836088	0.713460
	C1911	C	0.029022	0.809625	0.717388
	C1912	C	0.020639	0.810844	0.723926
	H1913	H	0.031021	0.801612	0.715208
	H1914	H	0.016272	0.803731	0.726827
	C1915	C	-0.039642	0.834204	0.776973
	C1916	C	-0.046608	0.833919	0.783877
	H1917	H	-0.038049	0.841839	0.774157
	C1918	C	-0.048686	0.824063	0.787580
	H1919	H	-0.050467	0.841334	0.786477
	C1920	C	-0.043615	0.814471	0.784216
	C1921	C	-0.036757	0.814709	0.777306
	H1922	H	-0.045133	0.806801	0.787005
	H1923	H	-0.032824	0.807270	0.774779
	C1924	C	0.522200	0.336407	0.758877
	C1925	C	0.517663	0.333376	0.751307
	C1926	C	0.505237	0.337551	0.746851
	H1927	H	0.497017	0.344017	0.748537
	C1928	C	0.504000	0.332721	0.740104
	C1929	C	0.491866	0.334887	0.734116
	C1930	C	0.514577	0.324386	0.737950
	C1931	C	0.509789	0.321015	0.730502
	C1932	C	0.527008	0.320212	0.742389
	H1933	H	0.535140	0.313688	0.740722
	C1934	C	0.528097	0.324957	0.749154
	C1935	C	0.539534	0.322212	0.755258
	N1936	N	0.495828	0.327447	0.728563
	N1937	N	0.535180	0.329255	0.760961
	O1938	O	0.516371	0.314236	0.726815
	O1939	O	0.480810	0.341491	0.733973
	O1940	O	0.550312	0.315416	0.755414
	O1941	O	0.516164	0.343390	0.762562
	C1942	C	0.486431	0.326127	0.722007
	C1943	C	0.542432	0.328749	0.768029
	C1944	C	0.484540	0.315812	0.718989
	C1945	C	0.475463	0.314452	0.712658
	H1946	H	0.490075	0.308841	0.721562
	C1947	C	0.467973	0.323316	0.709241
	H1948	H	0.474072	0.306476	0.710305
	C1949	C	0.469825	0.333621	0.712309
	C1950	C	0.478987	0.335027	0.718636
	H1951	H	0.464120	0.340530	0.709716
	H1952	H	0.480521	0.343038	0.720893
	C1953	C	0.546245	0.338230	0.771822
	C1954	C	0.553433	0.337587	0.778648
	H1955	H	0.543814	0.346036	0.769397
	C1956	C	0.556748	0.327501	0.781813
	H1957	H	0.556533	0.344892	0.781596
	C1958	C	0.552714	0.318046	0.777988
	C1959	C	0.545640	0.318649	0.771156
	H1960	H	0.555242	0.310202	0.780349
	H1961	H	0.542638	0.311305	0.768252
	H1962	H	0.134803	0.770317	0.630314
	C1963	C	0.130673	0.775484	0.634668
	C1964	C	0.121354	0.770737	0.640383
	H1965	H	0.141629	0.790025	0.630247
	C1966	C	0.134461	0.786388	0.634625
	C1967	C	0.128949	0.792989	0.640390
	H1968	H	0.115509	0.793430	0.650440
	C1969	C	0.119643	0.788312	0.646066
	C1970	C	0.115522	0.777162	0.646283
	C1971	C	0.108426	0.754812	0.646040
	C1972	C	0.117487	0.759374	0.640467
	C1973	C	0.102140	0.760559	0.652053
	C1974	C	0.092845	0.755416	0.657637
	H1975	H	0.090452	0.746772	0.657301
	H1976	H	0.079812	0.757336	0.667675
	C1977	C	0.086938	0.761254	0.663392
	C1978	C	0.090187	0.772568	0.663745
	H1979	H	0.101796	0.786320	0.658543
	C1980	C	0.099419	0.777681	0.658208
	C1981	C	0.105703	0.771991	0.652220
	C1982	C	0.073227	0.790842	0.680313
	C1983	C	0.064270	0.786119	0.686183
	H1984	H	0.062031	0.777447	0.686275
	H1985	H	0.051623	0.789126	0.696178
	C1986	C	0.058525	0.792588	0.691660
	C1987	C	0.061415	0.803899	0.691525
	C1988	C	0.070507	0.808956	0.685713
	C1989	C	0.076193	0.802074	0.680176
	H1990	H	0.083017	0.805594	0.675661
	C1991	C	0.073441	0.820864	0.685758
	C1992	C	0.082603	0.826494	0.680372
	H1993	H	0.087920	0.821935	0.675957
	C1994	C	0.085185	0.837761	0.680547
	C1995	C	0.078325	0.843841	0.686305
	H1996	H	0.080302	0.852535	0.686417
	H1997	H	0.064089	0.843202	0.696114
	C1998	C	0.069334	0.838652	0.691674
	C1999	C	0.066843	0.827296	0.691537
	C2000	C	0.057881	0.821649	0.697034
	C2001	C	0.055294	0.810637	0.697198
	H2002	H	0.155872	0.825351	0.631765
	C2003	C	0.150835	0.830130	0.636136
	C2004	C	0.140118	0.825097	0.641322
	H2005	H	0.125370	0.827322	0.650920
	C2006	C	0.133548	0.831257	0.647001
	C2007	C	0.137219	0.842394	0.647797
	H2008	H	0.162893	0.844911	0.632799
	C2009	C	0.154709	0.840970	0.636720
	C2010	C	0.148135	0.847174	0.642443
	H2011	H	0.116377	0.836594	0.659204
	C2012	C	0.119910	0.845094	0.659257
	C2013	C	0.130552	0.849160	0.653741
	C2014	C	0.113826	0.851668	0.664819
	C2015	C	0.118364	0.862814	0.664951
	H2016	H	0.113630	0.867873	0.669244
	H2017	H	0.132350	0.875535	0.659694
	C2018	C	0.128722	0.867046	0.659662
	C2019	C	0.134957	0.860446	0.654080
	C2020	C	0.151952	0.858345	0.643225
	C2021	C	0.145930	0.864817	0.648625
	C2022	C	0.103313	0.847093	0.670293
	C2023	C	0.094744	0.842946	0.674997
	C2024	C	0.136096	0.813872	0.640815
	C2025	C	0.132802	0.804270	0.640506
	C2026	C	0.079160	0.784278	0.674578
	C2027	C	0.084186	0.778775	0.669638
	N2028	N	0.121573	0.751344	0.635570
	O2029	O	0.106761	0.743935	0.644681
	C2030	C	0.115096	0.742445	0.638227
	N2031	N	0.046371	0.807890	0.703385
	O2032	O	0.050503	0.825884	0.703098
	C2033	C	0.043805	0.817013	0.706687
	N2034	N	0.152409	0.875233	0.647699
	O2035	O	0.162190	0.864609	0.638894
	C2036	C	0.161879	0.874769	0.641969
	H2037	H	0.351500	0.271646	0.631038
	C2038	C	0.357033	0.277066	0.634974
	C2039	C	0.368622	0.272779	0.639950
	H2040	H	0.344037	0.291148	0.631265
	C2041	C	0.352898	0.287857	0.635092
	C2042	C	0.360344	0.294807	0.640279
	H2043	H	0.377421	0.295953	0.649184
	C2044	C	0.371791	0.290569	0.645257
	C2045	C	0.376294	0.279542	0.645300
	C2046	C	0.384543	0.257499	0.644585
	C2047	C	0.373096	0.261573	0.639791
	C2048	C	0.392583	0.263572	0.650073
	C2049	C	0.404137	0.258890	0.654917
	H2050	H	0.407029	0.250372	0.654377
	H2051	H	0.420338	0.261428	0.663974
	C2052	C	0.411522	0.265000	0.660242
	C2053	C	0.407536	0.276131	0.660890
	H2054	H	0.393214	0.289306	0.656612
	C2055	C	0.396163	0.280808	0.656051
	C2056	C	0.388351	0.274834	0.650510
	C2057	C	0.427192	0.294881	0.676728
	C2058	C	0.437552	0.290425	0.682168
	H2059	H	0.440515	0.281885	0.682018
	H2060	H	0.451623	0.293717	0.691748
	C2061	C	0.443685	0.296978	0.687548
	C2062	C	0.439805	0.308111	0.687740
	C2063	C	0.429372	0.312904	0.682345
	C2064	C	0.423306	0.305942	0.676900
	H2065	H	0.415396	0.309255	0.672715
	C2066	C	0.425492	0.324635	0.682709
	C2067	C	0.415172	0.330005	0.677703
	H2068	H	0.409684	0.325374	0.673343
	C2069	C	0.411698	0.341105	0.678178
	C2070	C	0.418792	0.347283	0.683862
	H2071	H	0.416110	0.355848	0.684208
	H2072	H	0.434376	0.346972	0.693236
	C2073	C	0.428919	0.342346	0.688860
	C2074	C	0.432356	0.331157	0.688411
	C2075	C	0.442582	0.325769	0.693507
	C2076	C	0.446197	0.314926	0.693343
	H2077	H	0.333456	0.326881	0.631894
	C2078	C	0.339223	0.331808	0.636042
	C2079	C	0.350099	0.326897	0.641112
	H2080	H	0.365906	0.329408	0.650334
	C2081	C	0.357626	0.333252	0.646498
	C2082	C	0.354795	0.344471	0.647104
	H2083	H	0.327848	0.346572	0.632614
	C2084	C	0.336135	0.342721	0.636451
	C2085	C	0.343684	0.349124	0.641877
	H2086	H	0.376725	0.339034	0.658068
	C2087	C	0.373617	0.347554	0.658042
	C2088	C	0.362534	0.351449	0.652723
	C2089	C	0.380733	0.354337	0.663290
	C2090	C	0.376767	0.365512	0.663317
	H2091	H	0.382274	0.370726	0.667375
	H2092	H	0.362846	0.378097	0.658155
	C2093	C	0.366014	0.369581	0.658212
	C2094	C	0.358824	0.362786	0.652921
	C2095	C	0.340725	0.360382	0.642464
	C2096	C	0.347621	0.367023	0.647606
	C2097	C	0.391797	0.349959	0.668536
	C2098	C	0.401069	0.346027	0.672987
	C2099	C	0.353405	0.315614	0.640755
	C2100	C	0.356397	0.306015	0.640482
	C2101	C	0.420684	0.288212	0.671138
	C2102	C	0.414858	0.282575	0.666409
	N2103	N	0.367674	0.253294	0.635291
	O2104	O	0.386445	0.246700	0.643109
	C2105	C	0.375771	0.244743	0.637399
	N2106	N	0.456259	0.312403	0.699183
	O2107	O	0.450427	0.330125	0.699432
	C2108	C	0.458445	0.321489	0.702610
	N2109	N	0.341845	0.377486	0.646549
	O2110	O	0.330654	0.366593	0.638157
	C2111	C	0.331967	0.376895	0.640981
