data_Molecule from CHK

_cell_length_a		138.568591
_cell_length_b		98.371595
_cell_length_c		130.446224
_cell_angle_alpha	91.395757
_cell_angle_beta	89.982506
_cell_angle_gamma	90.842557
_symmetry_space_group_name_H-M	'P 1'
_symmetry_Int_Tables_number		1

loop_
	_symmetry_equiv_pos_as_xyz
	x,y,z

loop_
	_atom_site_label
	_atom_site_type_symbol
	_atom_site_fract_x
	_atom_site_fract_y
	_atom_site_fract_z
	C0	C	0.295308	0.380885	0.049162
	C1	C	0.299750	0.380384	0.058805
	C2	C	0.300099	0.368247	0.064213
	C3	C	0.295861	0.356451	0.059813
	C4	C	0.291346	0.356654	0.050192
	C5	C	0.291137	0.368938	0.044949
	H6	H	0.296079	0.347061	0.063963
	H7	H	0.287664	0.369162	0.037511
	H8	H	0.302967	0.389588	0.062136
	N9	N	0.298807	0.404680	0.047327
	C10	C	0.295050	0.393705	0.043528
	H11	H	0.291549	0.393360	0.035983
	N12	N	0.282789	0.344288	0.036873
	C13	C	0.286912	0.344172	0.045655
	H14	H	0.287352	0.334884	0.050104
	N15	N	0.305679	0.357059	0.079276
	C16	C	0.304906	0.368060	0.074304
	H17	H	0.308073	0.377770	0.077033
	C18	C	0.293917	0.475478	0.011525
	C19	C	0.294808	0.489735	0.007848
	C20	C	0.291375	0.495225	-0.001147
	H21	H	0.287420	0.489224	-0.006851
	C22	C	0.293398	0.508996	-0.002281
	C23	C	0.290837	0.518038	-0.010900
	C24	C	0.298477	0.516729	0.005068
	C25	C	0.299273	0.531022	0.001476
	C26	C	0.301944	0.511233	0.014044
	H27	H	0.305897	0.517234	0.019750
	C28	C	0.299944	0.497459	0.015162
	C29	C	0.302570	0.488430	0.023761
	N30	N	0.294576	0.531127	-0.008172
	N31	N	0.298727	0.475388	0.021108
	O32	O	0.303049	0.540646	0.005827
	O33	O	0.286528	0.514976	-0.018653
	O34	O	0.307004	0.491452	0.031443
	O35	O	0.289979	0.465876	0.007316
	C36	C	0.293667	0.542997	-0.014298
	C37	C	0.299576	0.463622	0.027336
	C38	C	0.301091	0.552789	-0.014384
	C39	C	0.300144	0.564411	-0.020179
	H40	H	0.307611	0.551300	-0.010036
	C41	C	0.291803	0.566410	-0.025944
	H42	H	0.305950	0.571895	-0.020355
	C43	C	0.284504	0.556462	-0.026001
	C44	C	0.285378	0.544841	-0.020186
	H45	H	0.278124	0.557974	-0.030619
	H46	H	0.279598	0.537348	-0.020190
	C47	C	0.308117	0.461367	0.032689
	C48	C	0.308901	0.449923	0.038707
	H49	H	0.314127	0.468436	0.032135
	C50	C	0.301249	0.440580	0.039424
	H51	H	0.315479	0.448105	0.042924
	C52	C	0.292668	0.443021	0.034175
	C53	C	0.291830	0.454431	0.028123
	H54	H	0.286566	0.436128	0.034974
	H55	H	0.285162	0.456284	0.024131
	C56	C	0.290611	0.579010	-0.032119
	O57	O	0.287739	0.578498	-0.040891
	N58	N	0.292787	0.591069	-0.026645
	H59	H	0.293393	0.590752	-0.018869
	C60	C	0.302399	0.428352	0.046026
	O61	O	0.306601	0.429053	0.054179
	N62	N	0.298488	0.416241	0.041887
	H63	H	0.295996	0.416027	0.034554
	C64	C	0.240170	0.231335	-0.011843
	C65	C	0.245535	0.242104	-0.005777
	C66	C	0.245626	0.256118	-0.006933
	H67	H	0.241494	0.260995	-0.012809
	C68	C	0.251426	0.263412	0.000011
	C69	C	0.253200	0.278429	0.000928
	C70	C	0.256757	0.257144	0.007574
	C71	C	0.262106	0.267932	0.013644
	C72	C	0.256671	0.243126	0.008724
	H73	H	0.260803	0.238249	0.014600
	C74	C	0.250880	0.235827	0.001773
	C75	C	0.249127	0.220802	0.000818
	N76	N	0.259678	0.280469	0.009251
	N77	N	0.242623	0.218791	-0.007485
	O78	O	0.267392	0.266481	0.020853
	O79	O	0.249896	0.287147	-0.004301
	O80	O	0.252462	0.212055	0.005997
	O81	O	0.234852	0.232798	-0.019025
	C82	C	0.263327	0.293520	0.012763
	C83	C	0.238996	0.205764	-0.011064
	C84	C	0.272809	0.294865	0.016368
	C85	C	0.276328	0.307512	0.019816
	H86	H	0.277447	0.286128	0.016363
	C87	C	0.270436	0.318930	0.019751
	H88	H	0.283730	0.308594	0.022405
	C89	C	0.261026	0.317557	0.015986
	C90	C	0.257447	0.304939	0.012548
	H91	H	0.256548	0.326491	0.015804
	H92	H	0.250113	0.304014	0.009778
	C93	C	0.244952	0.194415	-0.011122
	C94	C	0.241402	0.181848	-0.014710
	H95	H	0.252320	0.195372	-0.008460
	C96	C	0.231943	0.180459	-0.018333
	H97	H	0.245945	0.172969	-0.014764
	C98	C	0.225967	0.191798	-0.018073
	C99	C	0.229459	0.204395	-0.014493
	H100	H	0.218522	0.190702	-0.020517
	H101	H	0.224772	0.213082	-0.014260
	C102	C	0.274080	0.332676	0.023461
	O103	O	0.272767	0.342902	0.018682
	N104	N	0.278813	0.332627	0.032922
	H105	H	0.278818	0.323915	0.036963
	C106	C	0.228345	0.166790	-0.022273
	O107	O	0.230024	0.156358	-0.017890
	N108	N	0.223195	0.167191	-0.031469
	H109	H	0.222922	0.176097	-0.035251
	C110	C	0.344829	0.365286	0.130322
	C111	C	0.348474	0.362342	0.140815
	C112	C	0.357704	0.364233	0.144819
	H113	H	0.363628	0.368289	0.140365
	C114	C	0.358763	0.360547	0.154974
	C115	C	0.367581	0.361241	0.161582
	C116	C	0.351137	0.355357	0.160723
	C117	C	0.354783	0.352655	0.171268
	C118	C	0.341910	0.353420	0.156702
	H119	H	0.335981	0.349396	0.161164
	C120	C	0.340850	0.357076	0.146537
	C121	C	0.332044	0.356402	0.139888
	N122	N	0.364701	0.356413	0.171283
	N123	N	0.334910	0.361582	0.130292
	O124	O	0.350303	0.348263	0.178409
	O125	O	0.375568	0.365034	0.159241
	O126	O	0.324085	0.352342	0.142090
	O127	O	0.349302	0.369801	0.123222
	C128	C	0.371004	0.355514	0.179987
	C129	C	0.328577	0.363146	0.121697
	C130	C	0.369848	0.344902	0.186851
	C131	C	0.375958	0.344084	0.195296
	H132	H	0.364291	0.337232	0.185545
	C133	C	0.383264	0.353831	0.197004
	H134	H	0.375174	0.335729	0.200500
	C135	C	0.384466	0.364291	0.190045
	C136	C	0.378360	0.365211	0.181612
	H137	H	0.390229	0.371705	0.191337
	H138	H	0.379311	0.373482	0.176388
	C139	C	0.321463	0.353299	0.119416
	C140	C	0.315387	0.354852	0.111019
	H141	H	0.320712	0.344482	0.124151
	C142	C	0.316358	0.366195	0.104825
	H143	H	0.309766	0.347366	0.109335
	C144	C	0.323374	0.376095	0.107253
	C145	C	0.329494	0.374595	0.115608
	H146	H	0.323986	0.384957	0.102504
	H147	H	0.334887	0.382333	0.117412
	C148	C	0.389966	0.353138	0.206043
	O149	O	0.398634	0.354566	0.205190
	N150	N	0.385319	0.351669	0.215473
	H151	H	0.377984	0.351795	0.215740
	C152	C	0.309948	0.368094	0.095673
	O153	O	0.305548	0.378502	0.094546
	N154	N	0.310103	0.357233	0.088550
	H155	H	0.313708	0.348653	0.090317
	C156	C	0.299572	0.633555	0.941147
	C157	C	0.299588	0.620762	0.945683
	C158	C	0.295612	0.618828	0.955437
	C159	C	0.291567	0.629996	0.960669
	C160	C	0.291421	0.642892	0.956317
	C161	C	0.295439	0.644524	0.946541
	H162	H	0.288468	0.628561	0.968194
	H163	H	0.295372	0.654471	0.943148
	H164	H	0.302739	0.612218	0.941552
	N165	N	0.308315	0.625819	0.926271
	C166	C	0.303868	0.635482	0.930920
	H167	H	0.303176	0.645550	0.927583
	N168	N	0.287026	0.666386	0.958250
	C169	C	0.287127	0.654467	0.961987
	H170	H	0.284097	0.652395	0.969573
	N171	N	0.292850	0.603616	0.969304
	C172	C	0.295698	0.605287	0.960071
	H173	H	0.298536	0.596944	0.955281
	C174	C	0.206285	0.119591	0.951512
	C175	C	0.201059	0.120753	0.942372
	C176	C	0.200192	0.133286	0.937577
	C177	C	0.204640	0.144828	0.942126
	C178	C	0.209874	0.143987	0.951291
	C179	C	0.210656	0.131297	0.955887
	H180	H	0.203963	0.154542	0.938483
	H181	H	0.214702	0.130576	0.962959
	H182	H	0.197623	0.111760	0.938957
	N183	N	0.203136	0.095611	0.952491
	C184	C	0.207189	0.106300	0.956411
	H185	H	0.211482	0.106026	0.963464
	N186	N	0.219154	0.155654	0.964430
	C187	C	0.214455	0.156249	0.956003
	H188	H	0.213573	0.165840	0.952015
	N189	N	0.194172	0.145257	0.923068
	C190	C	0.194698	0.134130	0.927927
	H191	H	0.191438	0.124569	0.925013
	C192	C	0.392442	0.347050	0.261038
	C193	C	0.387207	0.348058	0.251883
	C194	C	0.391901	0.348744	0.242381
	C195	C	0.402019	0.348406	0.242142
	C196	C	0.407435	0.347392	0.251163
	C197	C	0.402550	0.346715	0.260564
	H198	H	0.405689	0.348961	0.234820
	H199	H	0.406701	0.345950	0.267563
	H200	H	0.379394	0.348328	0.252202
	N201	N	0.378208	0.346856	0.271542
	C202	C	0.387426	0.346392	0.270999
	H203	H	0.391941	0.345492	0.277849
	N204	N	0.423179	0.346241	0.258830
	C205	C	0.418067	0.347078	0.250694
	H206	H	0.421369	0.347677	0.243068
	N207	N	0.390616	0.350637	0.224144
	C208	C	0.386322	0.349842	0.232807
	H209	H	0.378433	0.349947	0.233472
	C210	C	0.332621	0.643604	0.867925
	C211	C	0.338213	0.642524	0.858125
	C212	C	0.339231	0.651910	0.850383
	H213	H	0.335752	0.661693	0.850685
	C214	C	0.345054	0.647812	0.842224
	C215	C	0.347677	0.655264	0.832729
	C216	C	0.349556	0.635236	0.841848
	C217	C	0.355322	0.634244	0.832174
	C218	C	0.348495	0.625815	0.849558
	H219	H	0.351978	0.616035	0.849260
	C220	C	0.342649	0.629894	0.857696
	C221	C	0.340003	0.622385	0.867152
	N222	N	0.353870	0.646571	0.827021
	N223	N	0.334002	0.631190	0.872974
	O224	O	0.360297	0.624977	0.829269
	O225	O	0.345088	0.666362	0.830293
	O226	O	0.342435	0.611174	0.869495
	O227	O	0.327852	0.652981	0.871029
	C228	C	0.358224	0.649839	0.817361
	C229	C	0.329940	0.627993	0.882772
	C230	C	0.359836	0.639571	0.809972
	C231	C	0.364231	0.642688	0.800692
	H232	H	0.357599	0.629220	0.811401
	C233	C	0.367055	0.656055	0.798659
	H234	H	0.365372	0.634766	0.794925
	C235	C	0.365238	0.666312	0.805967
	C236	C	0.360899	0.663260	0.815293
	H237	H	0.367307	0.676686	0.804272
	H238	H	0.359696	0.671290	0.820926
	C239	C	0.326490	0.614852	0.884594
	C240	C	0.322584	0.611809	0.894129
	H241	H	0.326810	0.607071	0.878617
	C242	C	0.322023	0.621772	0.901922
	H243	H	0.319923	0.601632	0.895632
	C244	C	0.325629	0.634849	0.900086
	C245	C	0.329518	0.637992	0.890559
	H246	H	0.325575	0.642531	0.906169
	H247	H	0.332327	0.648099	0.889208
	C248	C	0.371955	0.659533	0.788739
	O249	O	0.369399	0.668939	0.783621
	N250	N	0.379788	0.651235	0.786339
	H251	H	0.382470	0.645238	0.791895
	C252	C	0.317817	0.617986	0.912140
	O253	O	0.319164	0.606962	0.915810
	N254	N	0.312188	0.627997	0.916890
	H255	H	0.310408	0.636371	0.912926
	C256	C	0.248379	0.777616	0.010516
	C257	C	0.251752	0.764528	0.005773
	C258	C	0.257474	0.762412	-0.002862
	H259	H	0.260293	0.770700	-0.007338
	C260	C	0.259287	0.748863	-0.005342
	C261	C	0.265048	0.742997	-0.014041
	C262	C	0.255636	0.738188	0.000404
	C263	C	0.258949	0.725098	-0.004390
	C264	C	0.249920	0.740305	0.009043
	H265	H	0.247089	0.732019	0.013513
	C266	C	0.248098	0.753855	0.011518
	C267	C	0.242267	0.759722	0.020164
	N268	N	0.264530	0.728687	-0.013047
	N269	N	0.242713	0.774025	0.019111
	O270	O	0.257325	0.713722	-0.001563
	O271	O	0.269267	0.749032	-0.020643
	O272	O	0.238040	0.753691	0.026763
	O273	O	0.250019	0.788988	0.007692
	C274	C	0.269067	0.719052	-0.019888
	C275	C	0.237881	0.783659	0.025708
	C276	C	0.264446	0.706649	-0.022312
	C277	C	0.268893	0.697224	-0.028838
	H278	H	0.257382	0.704432	-0.019202
	C279	C	0.277997	0.700021	-0.032984
	H280	H	0.265228	0.687736	-0.030860
	C281	C	0.282480	0.712542	-0.030700
	C282	C	0.278086	0.722015	-0.024165
	H283	H	0.289462	0.714738	-0.034079
	H284	H	0.281701	0.731583	-0.022360
	C285	C	0.228765	0.780562	0.029696
	C286	C	0.224032	0.790084	0.035899
	H287	H	0.225328	0.770866	0.027898
	C288	C	0.228273	0.802780	0.038143
	H289	H	0.216959	0.787803	0.039027
	C290	C	0.237487	0.805697	0.034325
	C291	C	0.242272	0.796225	0.028128
	H292	H	0.240962	0.815331	0.036326
	H293	H	0.249406	0.798550	0.025246
	C294	C	0.282988	0.689860	-0.039901
	O295	O	0.286814	0.693050	-0.047862
	N296	N	0.283034	0.676672	-0.036159
	H297	H	0.280472	0.675068	-0.028974
	C298	C	0.222858	0.813020	0.044603
	O299	O	0.218720	0.809993	0.052429
	N300	N	0.222817	0.826059	0.040593
	H301	H	0.225763	0.827514	0.033551
	C302	C	0.168209	0.133391	0.863178
	C303	C	0.162321	0.137531	0.854199
	C304	C	0.161978	0.131876	0.844332
	H305	H	0.166334	0.123301	0.841983
	C306	C	0.155593	0.138006	0.837717
	C307	C	0.153368	0.134467	0.826746
	C308	C	0.149962	0.149021	0.840743
	C309	C	0.143876	0.152883	0.831829
	C310	C	0.150338	0.154713	0.850601
	H311	H	0.145950	0.163247	0.852962
	C312	C	0.156719	0.148580	0.857224
	C313	C	0.158832	0.151934	0.868257
	N314	N	0.146230	0.143715	0.823686
	N315	N	0.165701	0.142344	0.871396
	O316	O	0.138068	0.161856	0.831508
	O317	O	0.156882	0.125636	0.821459
	O318	O	0.155449	0.160882	0.873534
	O319	O	0.173978	0.124372	0.863505
	C320	C	0.141762	0.143577	0.813739
	C321	C	0.169394	0.141475	0.881646
	C322	C	0.139136	0.155773	0.809280
	C323	C	0.134659	0.155581	0.799706
	H324	H	0.140660	0.165359	0.813216
	C325	C	0.132726	0.143252	0.794491
	H326	H	0.132776	0.165044	0.796190
	C327	C	0.135539	0.131132	0.798901
	C328	C	0.139991	0.131237	0.808480
	H329	H	0.134161	0.121620	0.794751
	H330	H	0.141988	0.121750	0.811843
	C331	C	0.171355	0.153298	0.887497
	C332	C	0.174920	0.152359	0.897448
	H333	H	0.170122	0.163145	0.884285
	C334	C	0.176591	0.139656	0.901638
	H335	H	0.176259	0.161495	0.902056
	C336	C	0.174487	0.127895	0.895797
	C337	C	0.170946	0.128747	0.885842
	H338	H	0.175668	0.118080	0.899146
	H339	H	0.169325	0.119562	0.881424
	C340	C	0.127771	0.142734	0.784209
	O341	O	0.130512	0.135358	0.777262
	N342	N	0.119693	0.151051	0.783675
	H343	H	0.116915	0.154993	0.790324
	C344	C	0.180437	0.138305	0.912353
	O345	O	0.176592	0.130832	0.918425
	N346	N	0.188980	0.145692	0.914272
	H347	H	0.191569	0.152063	0.908850
	C348	C	0.210328	0.021449	-0.015981
	C349	C	0.209916	0.006743	-0.013290
	C350	C	0.214026	0.000286	-0.005025
	H351	H	0.218280	0.005714	0.000751
	C352	C	0.212294	-0.013664	-0.004742
	C353	C	0.215635	-0.023690	0.002895
	C354	C	0.206817	-0.020643	-0.012183
	C355	C	0.206372	-0.035341	-0.009543
	C356	C	0.202723	-0.014204	-0.020458
	H357	H	0.198483	-0.019635	-0.026245
	C358	C	0.204488	-0.000275	-0.020757
	C359	C	0.201263	0.009641	-0.028513
	N360	N	0.211878	-0.036527	-0.000462
	N361	N	0.205026	0.022482	-0.025212
	O362	O	0.202167	-0.044444	-0.014082
	O363	O	0.220547	-0.021499	0.010388
	O364	O	0.196430	0.007373	-0.036052
	O365	O	0.214333	0.030677	-0.011380
	C366	C	0.213504	-0.049139	0.004562
	C367	C	0.203669	0.034894	-0.030574
	C368	C	0.214447	-0.061177	-0.001249
	C369	C	0.215924	-0.073422	0.003619
	H370	H	0.214101	-0.061037	-0.009521
	C371	C	0.216452	-0.073876	0.014300
	H372	H	0.216661	-0.082799	-0.000835
	C373	C	0.215703	-0.061760	0.020066
	C374	C	0.214198	-0.049465	0.015251
	H375	H	0.216458	-0.061898	0.028323
	H376	H	0.213521	-0.040193	0.019793
	C377	C	0.203800	0.034809	-0.041288
	C378	C	0.202465	0.046861	-0.046464
	H379	H	0.204972	0.025437	-0.045571
	C380	C	0.201049	0.059118	-0.041069
	H381	H	0.202506	0.046888	-0.054774
	C382	C	0.200791	0.059092	-0.030347
	C383	C	0.202138	0.047079	-0.025107
	H384	H	0.199349	0.068427	-0.026090
	H385	H	0.201877	0.047120	-0.016825
	C386	C	0.217949	-0.087391	0.019202
	O387	O	0.223390	-0.095782	0.015584
	N388	N	0.212420	-0.089574	0.027993
	H389	H	0.207421	-0.082607	0.030160
	C390	C	0.199589	0.071873	-0.047004
	O391	O	0.194946	0.071824	-0.054887
	N392	N	0.204169	0.083524	-0.042882
	H393	H	0.208772	0.082644	-0.036874
	C394	C	0.523349	0.346246	0.256231
	C395	C	0.512606	0.345349	0.255167
	C396	C	0.505532	0.346706	0.262671
	H397	H	0.507245	0.348689	0.270670
	C398	C	0.496090	0.345327	0.259148
	C399	C	0.486840	0.346188	0.265038
	C400	C	0.493881	0.342762	0.248852
	C401	C	0.483142	0.341942	0.247764
	C402	C	0.500953	0.341391	0.241349
	H403	H	0.499237	0.339418	0.233349
	C404	C	0.510392	0.342765	0.244873
	C405	C	0.519631	0.341924	0.238969
	N406	N	0.479343	0.344065	0.257755
	N407	N	0.527132	0.344129	0.246232
	O408	O	0.478525	0.339964	0.240034
	O409	O	0.485832	0.348205	0.274116
	O410	O	0.520634	0.339860	0.229896
	O411	O	0.527986	0.348271	0.263943
	C412	C	0.469211	0.344198	0.260118
	C413	C	0.537247	0.344231	0.243794
	C414	C	0.462840	0.335364	0.254842
	C415	C	0.452992	0.335657	0.256994
	H416	H	0.465561	0.328228	0.249153
	C417	C	0.449383	0.344769	0.264392
	H418	H	0.448090	0.328657	0.253025
	C419	C	0.455810	0.353351	0.269793
	C420	C	0.465668	0.353140	0.267669
	H421	H	0.452980	0.360227	0.275637
	H422	H	0.470533	0.359982	0.271804
	C423	C	0.540849	0.335262	0.236299
	C424	C	0.550680	0.335368	0.234024
	H425	H	0.536047	0.328186	0.232304
	C426	C	0.557025	0.344297	0.239216
	H427	H	0.553547	0.328491	0.228201
	C428	C	0.553349	0.353405	0.246581
	C429	C	0.543528	0.353370	0.248895
	H430	H	0.558162	0.360689	0.250379
	H431	H	0.540742	0.360507	0.254546
	C432	C	0.438743	0.345407	0.266667
	O433	O	0.435610	0.345666	0.275344
	N434	N	0.432935	0.346063	0.257944
	H435	H	0.436150	0.347101	0.250987
	C436	C	0.567620	0.344074	0.236658
	O437	O	0.570518	0.343333	0.227895
	N438	N	0.573713	0.344409	0.245200
	H439	H	0.570766	0.343646	0.252308
	C440	C	0.354736	0.346683	0.331654
	C441	C	0.347930	0.345863	0.340531
	C442	C	0.349945	0.346174	0.350977
	H443	H	0.357225	0.347118	0.353945
	C444	C	0.341921	0.345153	0.357332
	C445	C	0.341461	0.345080	0.368790
	C446	C	0.332549	0.343909	0.353513
	C447	C	0.325742	0.343051	0.362386
	C448	C	0.330534	0.343592	0.343068
	H449	H	0.323254	0.342629	0.340100
	C450	C	0.338557	0.344597	0.336713
	C451	C	0.339018	0.344567	0.325252
	N452	N	0.331551	0.343745	0.371333
	N453	N	0.348932	0.345848	0.322712
	O454	O	0.317070	0.342072	0.362137
	O455	O	0.348085	0.345932	0.374760
	O456	O	0.332399	0.343699	0.319280
	O457	O	0.363405	0.347760	0.331891
	C458	C	0.327885	0.342954	0.381615
	C459	C	0.352632	0.346205	0.312427
	C460	C	0.319961	0.334507	0.383708
	C461	C	0.316444	0.333732	0.393690
	H462	H	0.316600	0.328469	0.377629
	C463	C	0.320713	0.341387	0.401678
	H464	H	0.310328	0.327170	0.395396
	C465	C	0.328716	0.349683	0.399561
	C466	C	0.332274	0.350523	0.389594
	H467	H	0.332275	0.355304	0.405756
	H468	H	0.338414	0.357050	0.388032
	C469	C	0.348345	0.338189	0.304639
	C470	C	0.352014	0.338523	0.294696
	H471	H	0.342233	0.331665	0.306313
	C472	C	0.360005	0.346731	0.292408
	H473	H	0.348725	0.332385	0.288592
	C474	C	0.364159	0.354897	0.300199
	C475	C	0.360530	0.354627	0.310160
	H476	H	0.370139	0.361648	0.298424
	H477	H	0.363750	0.361036	0.316115
	C478	C	0.316738	0.340265	0.412375
	O479	O	0.314155	0.329463	0.415820
	N480	N	0.315712	0.352688	0.417669
	H481	H	0.317031	0.361483	0.413941
	C482	C	0.363825	0.346788	0.281599
	O483	O	0.358526	0.346979	0.274210
	N484	N	0.373875	0.346237	0.280847
	H485	H	0.377817	0.344680	0.287279
	C486	C	0.387072	0.657782	0.740896
	C487	C	0.381841	0.656775	0.750069
	C488	C	0.386534	0.655555	0.759522
	C489	C	0.396656	0.655408	0.759691
	C490	C	0.402077	0.656490	0.750657
	C491	C	0.397188	0.657661	0.741310
	H492	H	0.400321	0.654526	0.766971
	H493	H	0.401336	0.658457	0.734298
	H494	H	0.374021	0.656919	0.749824
	N495	N	0.372841	0.658385	0.730399
	C496	C	0.382067	0.658887	0.730972
	H497	H	0.386606	0.660057	0.724149
	N498	N	0.417820	0.657337	0.742900
	C499	C	0.412717	0.656410	0.751050
	H500	H	0.416033	0.655597	0.758643
	N501	N	0.385037	0.651925	0.777601
	C502	C	0.380907	0.654459	0.769088
	H503	H	0.373069	0.655568	0.768421
	C504	C	0.202852	0.868927	0.060121
	C505	C	0.202997	0.881508	0.055263
	C506	C	0.208045	0.883322	0.046071
	C507	C	0.213015	0.872266	0.041740
	C508	C	0.212972	0.859567	0.046399
	C509	C	0.207856	0.858034	0.055595
	H510	H	0.216919	0.873603	0.034623
	H511	H	0.207789	0.848236	0.059222
	H512	H	0.199118	0.889951	0.058705
	N513	N	0.192955	0.877122	0.073969
	C514	C	0.197455	0.867167	0.069767
	H515	H	0.197446	0.857028	0.073083
	N516	N	0.218099	0.836291	0.045536
	C517	C	0.218133	0.848076	0.041565
	H518	H	0.221894	0.850071	0.034338
	N519	N	0.212808	0.898294	0.032683
	C520	C	0.208020	0.896540	0.040955
	H521	H	0.203690	0.904636	0.044491
	C522	C	0.096364	0.154175	0.748628
	C523	C	0.100959	0.154503	0.739049
	C524	C	0.111049	0.154208	0.738240
	C525	C	0.116554	0.153513	0.747237
	C526	C	0.112157	0.153131	0.756914
	C527	C	0.102053	0.153489	0.757489
	H528	H	0.124357	0.153205	0.746676
	H529	H	0.098613	0.153151	0.764935
	H530	H	0.096604	0.155028	0.732173
	N531	N	0.080401	0.155057	0.741456
	C532	C	0.085750	0.154471	0.749436
	H533	H	0.082670	0.154083	0.757176
	N534	N	0.114200	0.152457	0.775188
	C535	C	0.118078	0.152198	0.766273
	H536	H	0.125897	0.151490	0.765126
	N537	N	0.124963	0.155155	0.727277
	C538	C	0.115758	0.154534	0.728097
	H539	H	0.111027	0.154270	0.721352
	C540	C	0.613961	0.345917	0.240136
	C541	C	0.619660	0.346211	0.249030
	C542	C	0.615474	0.346094	0.258821
	C543	C	0.605376	0.345713	0.259620
	C544	C	0.599494	0.345436	0.250863
	C545	C	0.603886	0.345525	0.241169
	H546	H	0.602099	0.345660	0.267156
	H547	H	0.599382	0.345298	0.234373
	H548	H	0.627456	0.346555	0.248302
	N549	N	0.627638	0.346347	0.228825
	C550	C	0.618450	0.345986	0.229875
	H551	H	0.613571	0.345651	0.223250
	N552	N	0.583428	0.344800	0.243931
	C553	C	0.588886	0.345045	0.251858
	H554	H	0.585928	0.344932	0.259656
	N555	N	0.617994	0.345878	0.277053
	C556	C	0.621648	0.346347	0.268050
	H557	H	0.629449	0.346459	0.266654
	C558	C	0.304077	0.378304	0.458409
	C559	C	0.307377	0.377535	0.448239
	C560	C	0.308151	0.365001	0.442973
	C561	C	0.305503	0.353096	0.448045
	C562	C	0.302134	0.353558	0.458185
	C563	C	0.301478	0.366236	0.463286
	H564	H	0.306054	0.343380	0.444000
	H565	H	0.298878	0.366655	0.471125
	H566	H	0.309367	0.386830	0.444420
	N567	N	0.305257	0.402674	0.459330
	C568	C	0.303323	0.391563	0.463871
	H569	H	0.300944	0.391441	0.471890
	N570	N	0.295901	0.341105	0.472443
	C571	C	0.299253	0.340908	0.463289
	H572	H	0.299971	0.331385	0.458814
	N573	N	0.312499	0.352918	0.427490
	C574	C	0.311656	0.364351	0.432289
	H575	H	0.313461	0.374031	0.428701
	C576	C	0.518081	0.658242	0.744144
	C577	C	0.507363	0.658889	0.745403
	C578	C	0.500163	0.657491	0.738014
	H579	H	0.501736	0.655666	0.729973
	C580	C	0.490787	0.658614	0.741710
	C581	C	0.481442	0.657649	0.735971
	C582	C	0.488758	0.660981	0.752061
	C583	C	0.478042	0.661569	0.753334
	C584	C	0.495958	0.662389	0.759449
	H585	H	0.494384	0.664208	0.767491
	C586	C	0.505332	0.661267	0.755753
	C587	C	0.514670	0.662208	0.761500
	N588	N	0.474075	0.659525	0.743393
	N589	N	0.522039	0.660272	0.754091
	O590	O	0.473554	0.663332	0.761154
	O591	O	0.480279	0.655732	0.726899
	O592	O	0.515829	0.664146	0.770571
	O593	O	0.522576	0.656438	0.736334
	C594	C	0.463911	0.659307	0.741180
	C595	C	0.532191	0.660316	0.756349
	C596	C	0.457741	0.668022	0.746597
	C597	C	0.447867	0.667683	0.744559
	H598	H	0.460645	0.675118	0.752294
	C599	C	0.444027	0.658635	0.737143
	H600	H	0.443127	0.674615	0.748623
	C601	C	0.450255	0.650159	0.731614
	C602	C	0.460139	0.650419	0.733620
	H603	H	0.447251	0.643336	0.725754
	H604	H	0.464847	0.643670	0.729376
	C605	C	0.536010	0.669182	0.763895
	C606	C	0.545875	0.669211	0.765995
	H607	H	0.531350	0.676076	0.768066
	C608	C	0.552041	0.660524	0.760575
	H609	H	0.548909	0.676005	0.771857
	C610	C	0.548151	0.651519	0.753157
	C611	C	0.538295	0.651417	0.751020
	H612	H	0.552828	0.644420	0.749177
	H613	H	0.535348	0.644352	0.745327
	C614	C	0.433358	0.657990	0.734951
	O615	O	0.430168	0.657745	0.726298
	N616	N	0.427584	0.657296	0.743712
	H617	H	0.430815	0.656209	0.750640
	C618	C	0.562681	0.660861	0.762942
	O619	O	0.565728	0.661358	0.771655
	N620	N	0.568625	0.660929	0.754286
	H621	H	0.565567	0.661928	0.747263
	C622	C	0.349251	0.661244	0.670299
	C623	C	0.342359	0.661948	0.661504
	C624	C	0.344287	0.662320	0.651052
	H625	H	0.351555	0.662151	0.648012
	C626	C	0.336193	0.662933	0.644789
	C627	C	0.335627	0.663458	0.633351
	C628	C	0.326835	0.663168	0.648702
	C629	C	0.319934	0.663786	0.639913
	C630	C	0.324907	0.662818	0.659155
	H631	H	0.317639	0.662991	0.662197
	C632	C	0.333001	0.662211	0.665416
	C633	C	0.333555	0.661682	0.676854
	N634	N	0.325670	0.663970	0.630916
	N635	N	0.343507	0.661091	0.679288
	O636	O	0.311251	0.663987	0.640254
	O637	O	0.342209	0.663480	0.627319
	O638	O	0.326969	0.661682	0.682881
	O639	O	0.357933	0.660917	0.669974
	C640	C	0.321880	0.664663	0.620686
	C641	C	0.347278	0.660354	0.689519
	C642	C	0.313687	0.672340	0.618791
	C643	C	0.310023	0.672958	0.608866
	H644	H	0.310224	0.677902	0.624981
	C645	C	0.314411	0.665902	0.600738
	H646	H	0.303693	0.678920	0.607316
	C647	C	0.322692	0.658410	0.602655
	C648	C	0.326397	0.657731	0.612562
	H649	H	0.326344	0.653293	0.596352
	H650	H	0.332748	0.651808	0.613966
	C651	C	0.342888	0.667504	0.697608
	C652	C	0.346588	0.666742	0.707509
	H653	H	0.336661	0.673677	0.696205
	C654	C	0.354714	0.658970	0.709465
	H655	H	0.343210	0.672193	0.713846
	C656	C	0.358987	0.651684	0.701363
	C657	C	0.355329	0.652387	0.691439
	H658	H	0.365078	0.645255	0.702860
	H659	H	0.358639	0.646645	0.685242
	C660	C	0.310243	0.666773	0.590113
	O661	O	0.307408	0.677382	0.586747
	N662	N	0.309712	0.654381	0.584654
	H663	H	0.311268	0.645670	0.588315
	C664	C	0.358506	0.658369	0.720265
	O665	O	0.353172	0.657347	0.727586
	N666	N	0.368547	0.659382	0.721106
	H667	H	0.372507	0.661667	0.714795
	C668	C	0.162541	0.860682	0.129119
	C669	C	0.155863	0.861882	0.138108
	C670	C	0.153402	0.852242	0.145320
	H671	H	0.156337	0.842102	0.145137
	C672	C	0.146861	0.856563	0.152758
	C673	C	0.142619	0.848905	0.161496
	C674	C	0.143064	0.869608	0.152973
	C675	C	0.136295	0.870805	0.161870
	C676	C	0.145524	0.879251	0.145769
	H677	H	0.142567	0.889379	0.145935
	C678	C	0.152043	0.874915	0.138321
	C679	C	0.156125	0.882532	0.129492
	N680	N	0.136284	0.857997	0.166616
	N681	N	0.162337	0.873399	0.124248
	O682	O	0.131766	0.880602	0.164606
	O683	O	0.144157	0.837356	0.163808
	O684	O	0.154563	0.894082	0.127205
	O685	O	0.167168	0.850967	0.126405
	C686	C	0.130421	0.854611	0.175310
	C687	C	0.167620	0.876561	0.115107
	C688	C	0.121148	0.859897	0.176305
	C689	C	0.115465	0.856615	0.184729
	H690	H	0.118324	0.866433	0.170518
	C691	C	0.118937	0.848122	0.192280
	H692	H	0.108256	0.860637	0.185546
	C693	C	0.128165	0.842701	0.191168
	C694	C	0.133902	0.845945	0.182762
	H695	H	0.130797	0.835744	0.196796
	H696	H	0.141052	0.841792	0.182016
	C697	C	0.163487	0.884692	0.107695
	C698	C	0.168615	0.887686	0.098820
	H699	H	0.156304	0.888601	0.108791
	C700	C	0.177855	0.882567	0.097176
	H701	H	0.165486	0.894026	0.093046
	C702	C	0.182008	0.874608	0.104694
	C703	C	0.176926	0.871567	0.113597
	H704	H	0.189292	0.870984	0.103662
	H705	H	0.180209	0.865477	0.119395
	C706	C	0.112553	0.844859	0.201262
	O707	O	0.103976	0.842557	0.200259
	N708	N	0.117154	0.845597	0.210802
	H709	H	0.124155	0.848810	0.211218
	C710	C	0.183126	0.886013	0.087458
	O711	O	0.182949	0.897305	0.083934
	N712	N	0.187956	0.875150	0.082758
	H713	H	0.187082	0.865659	0.085571
	C714	C	0.147568	0.152520	0.666610
	C715	C	0.154343	0.152144	0.657672
	C716	C	0.152314	0.150235	0.647293
	H717	H	0.145038	0.148699	0.644427
	C718	C	0.160320	0.150405	0.640863
	C719	C	0.160778	0.148587	0.629451
	C720	C	0.169686	0.152388	0.644549
	C721	C	0.176470	0.152058	0.635631
	C722	C	0.171722	0.154256	0.654929
	H723	H	0.178999	0.155768	0.657797
	C724	C	0.163722	0.154029	0.661358
	C725	C	0.163305	0.155600	0.672785
	N726	N	0.170683	0.149644	0.626797
	N727	N	0.153411	0.154572	0.675443
	O728	O	0.185110	0.153608	0.635772
	O729	O	0.154160	0.146561	0.623603
	O730	O	0.169936	0.157419	0.678650
	O731	O	0.138905	0.151294	0.666504
	C732	C	0.174404	0.148347	0.616532
	C733	C	0.149782	0.155345	0.685754
	C734	C	0.183373	0.142364	0.614792
	C735	C	0.187035	0.141218	0.604862
	H736	H	0.187435	0.138478	0.621127
	C737	C	0.181815	0.146017	0.596559
	H738	H	0.193911	0.136394	0.603509
	C739	C	0.172784	0.151751	0.598318
	C740	C	0.169095	0.152994	0.608237
	H741	H	0.168705	0.155253	0.591829
	H742	H	0.162158	0.157633	0.609477
	C743	C	0.154852	0.149370	0.693691
	C744	C	0.151262	0.150063	0.703667
	H745	H	0.161511	0.144141	0.692102
	C746	C	0.142597	0.156623	0.705856
	H747	H	0.155148	0.145484	0.709883
	C748	C	0.137655	0.162796	0.697902
	C749	C	0.141185	0.162122	0.687895
	H750	H	0.131126	0.168346	0.699559
	H751	H	0.137346	0.166950	0.681792
	C752	C	0.185717	0.144906	0.585800
	O753	O	0.180773	0.140895	0.578659
	N754	N	0.195311	0.149337	0.584910
	H755	H	0.198289	0.155012	0.590769
	C756	C	0.138973	0.157059	0.716751
	O757	O	0.144397	0.158657	0.723989
	N758	N	0.129001	0.155226	0.717800
	H759	H	0.124985	0.152607	0.711514
	C760	C	-0.019657	0.157067	0.747016
	C761	C	-0.008921	0.155959	0.747698
	C762	C	-0.001973	0.158196	0.740208
	H763	H	-0.003801	0.161200	0.732528
	C764	C	0.007501	0.156282	0.743306
	C765	C	0.016644	0.157781	0.737301
	C766	C	0.009857	0.152391	0.753188
	C767	C	0.020590	0.151293	0.753883
	C768	C	0.002909	0.150150	0.760677
	H769	H	0.004737	0.147147	0.768357
	C770	C	-0.006563	0.152065	0.757579
	C771	C	-0.015698	0.150567	0.763592
	N772	N	0.024230	0.154615	0.744088
	N773	N	-0.023289	0.153733	0.756813
	O774	O	0.025320	0.148285	0.761214
	O775	O	0.017517	0.160952	0.728486
	O776	O	-0.016563	0.147390	0.772406
	O777	O	-0.024396	0.160091	0.739696
	C778	C	0.034302	0.154819	0.741453
	C779	C	-0.033352	0.153558	0.759484
	C780	C	0.040468	0.145168	0.745488
	C781	C	0.050265	0.145486	0.743073
	H782	H	0.037618	0.137385	0.750402
	C783	C	0.054030	0.155438	0.736656
	H784	H	0.054996	0.137855	0.746048
	C785	C	0.047794	0.164861	0.732476
	C786	C	0.037987	0.164624	0.734868
	H787	H	0.050733	0.172398	0.727365
	H788	H	0.033274	0.172094	0.731688
	C789	C	-0.037024	0.143749	0.766075
	C790	C	-0.046812	0.143570	0.768545
	H791	H	-0.032313	0.136240	0.769206
	C792	C	-0.053047	0.153052	0.764438
	H793	H	-0.049736	0.136038	0.773669
	C794	C	-0.049297	0.162993	0.758000
	C795	C	-0.039517	0.163251	0.755505
	H796	H	-0.054022	0.170668	0.755078
	H797	H	-0.036674	0.171026	0.750579
	C798	C	0.064627	0.156077	0.734124
	O799	O	0.067550	0.157541	0.725458
	N800	N	0.070674	0.155236	0.742649
	H801	H	0.067677	0.155365	0.749770
	C802	C	-0.063615	0.152491	0.767111
	O803	O	-0.066432	0.150916	0.775806
	N804	N	-0.069778	0.153545	0.758699
	H805	H	-0.066894	0.153509	0.751527
	C806	C	0.658126	0.336343	0.327051
	C807	C	0.661563	0.338891	0.337810
	C808	C	0.667955	0.331431	0.343568
	H809	H	0.671327	0.322294	0.340593
	C810	C	0.669698	0.336570	0.353429
	C811	C	0.676078	0.331178	0.361596
	C812	C	0.665366	0.348343	0.357252
	C813	C	0.668866	0.350980	0.367970
	C814	C	0.658959	0.355790	0.351504
	H815	H	0.655601	0.364939	0.354473
	C816	C	0.657198	0.350631	0.341655
	C817	C	0.650789	0.356009	0.333515
	N818	N	0.675252	0.340295	0.370129
	N819	N	0.651708	0.347007	0.324936
	O820	O	0.666799	0.360277	0.373700
	O821	O	0.680926	0.321120	0.361168
	O822	O	0.645815	0.365944	0.334002
	O823	O	0.660236	0.327130	0.321266
	C824	C	0.680275	0.339001	0.379690
	C825	C	0.646882	0.348599	0.315302
	C826	C	0.675819	0.342940	0.388895
	C827	C	0.680742	0.341915	0.398151
	H828	H	0.668522	0.346669	0.388852
	C829	C	0.690149	0.336977	0.398339
	H830	H	0.677239	0.344775	0.405290
	C831	C	0.694485	0.332786	0.389149
	C832	C	0.689619	0.333830	0.379854
	H833	H	0.701720	0.328764	0.389377
	H834	H	0.693128	0.330744	0.372792
	C835	C	0.637407	0.353297	0.315077
	C836	C	0.632754	0.354842	0.305714
	H837	H	0.633697	0.355699	0.322167
	C838	C	0.637474	0.351675	0.296504
	H839	H	0.625488	0.358733	0.305518
	C840	C	0.646980	0.347164	0.296782
	C841	C	0.651673	0.345560	0.306113
	H842	H	0.650638	0.344919	0.289606
	H843	H	0.659036	0.342092	0.306226
	C844	C	0.695598	0.336045	0.408270
	O845	O	0.699731	0.325834	0.410685
	N846	N	0.695652	0.348062	0.414204
	H847	H	0.692792	0.356562	0.411200
	C848	C	0.632575	0.353268	0.286310
	O849	O	0.636375	0.359507	0.279472
	N850	N	0.623730	0.346283	0.285461
	H851	H	0.621081	0.341408	0.291686
	C852	C	0.648411	0.348277	0.167543
	C853	C	0.654830	0.347626	0.158321
	C854	C	0.652393	0.347982	0.147991
	H855	H	0.645013	0.348867	0.145402
	C856	C	0.660129	0.347053	0.141229
	C857	C	0.660119	0.346960	0.129756
	C858	C	0.669629	0.345878	0.144564
	C859	C	0.676051	0.345062	0.135359
	C860	C	0.672069	0.345527	0.154891
	H861	H	0.679446	0.344602	0.157481
	C862	C	0.664330	0.346414	0.161647
	C863	C	0.664346	0.346235	0.173111
	N864	N	0.669890	0.345642	0.126712
	N865	N	0.654567	0.347341	0.176164
	O866	O	0.684710	0.344175	0.135177
	O867	O	0.653276	0.347774	0.124124
	O868	O	0.671196	0.345376	0.178726
	O869	O	0.639761	0.349310	0.167763
	C870	C	0.673112	0.344620	0.116249
	C871	C	0.651303	0.347329	0.186621
	C872	C	0.680772	0.336129	0.113612
	C873	C	0.683858	0.335094	0.103460
	H874	H	0.684261	0.330249	0.119398
	C875	C	0.679417	0.342525	0.095833
	H876	H	0.689768	0.328495	0.101338
	C877	C	0.671675	0.350868	0.098493
	C878	C	0.668550	0.351970	0.108638
	H879	H	0.667973	0.356315	0.092588
	H880	H	0.662611	0.358527	0.110624
	C881	C	0.655768	0.339078	0.193733
	C882	C	0.652533	0.339034	0.203848
	H883	H	0.661685	0.332669	0.191403
	C884	C	0.644803	0.347094	0.206983
	H885	H	0.655968	0.332713	0.209436
	C886	C	0.640471	0.355497	0.199870
	C887	C	0.643664	0.355599	0.189735
	H888	H	0.634706	0.362145	0.202311
	H889	H	0.640313	0.362177	0.184301
	C890	C	0.682945	0.341064	0.084948
	O891	O	0.685262	0.330163	0.081240
	N892	N	0.683910	0.353286	0.079767
	H893	H	0.682793	0.362226	0.083633
	C894	C	0.641492	0.346712	0.217974
	O895	O	0.647151	0.346436	0.225051
	N896	N	0.631478	0.346311	0.219258
	H897	H	0.627173	0.345178	0.212974
	C898	C	0.305618	0.474816	0.496477
	C899	C	0.304746	0.489316	0.500040
	C900	C	0.305735	0.494929	0.509877
	H901	H	0.307371	0.488862	0.516451
	C902	C	0.304481	0.508914	0.510651
	C903	C	0.305112	0.518140	0.519926
	C904	C	0.302318	0.516724	0.502199
	C905	C	0.301403	0.531221	0.505768
	C906	C	0.301367	0.511117	0.492357
	H907	H	0.299747	0.517186	0.485780
	C908	C	0.302679	0.497141	0.491576
	C909	C	0.302280	0.487965	0.482266
	N910	N	0.303197	0.531374	0.516463
	N911	N	0.304125	0.474694	0.485723
	O912	O	0.299560	0.540943	0.500721
	O913	O	0.306858	0.515139	0.528620
	O914	O	0.300768	0.491075	0.473545
	O915	O	0.307198	0.465074	0.501606
	C916	C	0.303203	0.543421	0.522909
	C917	C	0.304551	0.462729	0.479182
	C918	C	0.296299	0.553419	0.521456
	C919	C	0.296364	0.565155	0.527669
	H920	H	0.290864	0.551949	0.515575
	C921	C	0.303364	0.567129	0.535312
	H922	H	0.290845	0.572685	0.526676
	C923	C	0.310129	0.556967	0.536818
	C924	C	0.310093	0.545182	0.530667
	H925	H	0.315439	0.558422	0.542862
	H926	H	0.315426	0.537470	0.531855
	C927	C	0.298657	0.461462	0.470499
	C928	C	0.299141	0.449868	0.464169
	H929	H	0.293676	0.469401	0.468684
	C930	C	0.305391	0.439358	0.466467
	H931	H	0.294660	0.448827	0.457378
	C932	C	0.311324	0.440710	0.475108
	C933	C	0.310925	0.452312	0.481437
	H934	H	0.316366	0.432742	0.476757
	H935	H	0.315643	0.453302	0.488015
	C936	C	0.303716	0.579739	0.542111
	O937	O	0.305793	0.579329	0.551131
	N938	N	0.301691	0.591830	0.537176
	H939	H	0.301017	0.591721	0.529412
	C940	C	0.305773	0.426922	0.459544
	O941	O	0.306861	0.427645	0.450351
	N942	N	0.304494	0.414663	0.464597
	H943	H	0.302792	0.414925	0.472188
	C944	C	0.257752	0.227234	0.519863
	C945	C	0.262324	0.238194	0.513666
	C946	C	0.264630	0.251559	0.516533
	H947	H	0.263299	0.255647	0.524174
	C948	C	0.268718	0.259319	0.508844
	C949	C	0.271916	0.273923	0.509220
	C950	C	0.270379	0.254082	0.498986
	C951	C	0.274685	0.265134	0.492688
	C952	C	0.268114	0.240705	0.496130
	H953	H	0.269412	0.236634	0.488477
	C954	C	0.264016	0.232955	0.503816
	C955	C	0.260646	0.218436	0.503361
	N956	N	0.275340	0.276801	0.499252
	N957	N	0.256894	0.215663	0.513215
	O958	O	0.277168	0.264462	0.483840
	O959	O	0.271643	0.281800	0.516424
	O960	O	0.261016	0.210551	0.496168
	O961	O	0.255195	0.227928	0.528685
	C962	C	0.278804	0.289895	0.496110
	C963	C	0.252493	0.202957	0.516012
	C964	C	0.276641	0.294416	0.486302
	C965	C	0.280002	0.307094	0.483217
	H966	H	0.272267	0.288137	0.481158
	C967	C	0.285604	0.315368	0.489828
	H968	H	0.278124	0.310684	0.475704
	C969	C	0.287595	0.310882	0.499676
	C970	C	0.284256	0.298210	0.502823
	H971	H	0.291802	0.317436	0.504827
	H972	H	0.285934	0.294804	0.510424
	C973	C	0.247014	0.195393	0.508840
	C974	C	0.242613	0.183206	0.511637
	H975	H	0.246096	0.199011	0.501151
	C976	C	0.243540	0.178473	0.521593
	H977	H	0.238361	0.177251	0.506134
	C978	C	0.249177	0.185945	0.528681
	C979	C	0.253625	0.198128	0.525933
	H980	H	0.250186	0.182099	0.536309
	H981	H	0.258018	0.203791	0.531441
	C982	C	0.289323	0.329079	0.486593
	O983	O	0.289134	0.339029	0.492254
	N984	N	0.293172	0.329192	0.476692
	H985	H	0.294165	0.320192	0.472858
	C986	C	0.238483	0.165441	0.524413
	O987	O	0.238825	0.155238	0.519033
	N988	N	0.233192	0.166317	0.533522
	H989	H	0.232682	0.175501	0.537224
	C990	C	0.608961	0.658613	0.758257
	C991	C	0.614438	0.658576	0.749205
	C992	C	0.610022	0.659248	0.739559
	C993	C	0.599928	0.659973	0.739072
	C994	C	0.594263	0.659944	0.747986
	C995	C	0.598878	0.659256	0.757528
	H996	H	0.596477	0.660436	0.731644
	H997	H	0.594543	0.659263	0.764447
	H998	H	0.622233	0.658013	0.749696
	N999	N	0.622883	0.658410	0.769239
	C1000	C	0.613675	0.658000	0.768375
	H1001	H	0.608934	0.657426	0.775094
	N1002	N	0.578354	0.660421	0.755332
	C1003	C	0.583651	0.660555	0.747285
	H1004	H	0.580538	0.661116	0.739578
	N1005	N	0.612125	0.661083	0.721346
	C1006	C	0.615910	0.659042	0.730125
	H1007	H	0.623670	0.657417	0.731091
	C1008	C	0.302645	0.641541	0.559239
	C1009	C	0.299365	0.653082	0.554256
	C1010	C	0.296028	0.652257	0.544106
	C1011	C	0.296058	0.639598	0.538908
	C1012	C	0.299293	0.627892	0.543695
	C1013	C	0.302540	0.629009	0.553874
	H1014	H	0.293496	0.638900	0.531058
	H1015	H	0.305033	0.619991	0.557619
	H1016	H	0.299405	0.662789	0.558374
	N1017	N	0.306453	0.653943	0.574844
	C1018	C	0.306141	0.642520	0.569920
	H1019	H	0.308445	0.633061	0.573403
	N1020	N	0.301748	0.603790	0.542581
	C1021	C	0.299276	0.614657	0.538117
	H1022	H	0.296960	0.614560	0.530074
	N1023	N	0.289199	0.663836	0.529875
	C1024	C	0.292490	0.664483	0.539052
	H1025	H	0.292690	0.674045	0.543561
	C1026	C	0.110449	0.839885	0.256377
	C1027	C	0.115552	0.841936	0.247232
	C1028	C	0.110868	0.841403	0.237701
	C1029	C	0.100888	0.838797	0.237423
	C1030	C	0.095593	0.836773	0.246437
	C1031	C	0.100471	0.837325	0.255867
	H1032	H	0.097219	0.838426	0.230080
	H1033	H	0.096413	0.835790	0.262860
	H1034	H	0.123255	0.843982	0.247581
	N1035	N	0.124494	0.843399	0.266933
	C1036	C	0.115457	0.840568	0.266365
	H1037	H	0.111074	0.838750	0.273214
	N1038	N	0.080007	0.832982	0.254072
	C1039	C	0.085071	0.834347	0.245933
	H1040	H	0.081778	0.834042	0.238279
	N1041	N	0.112031	0.843157	0.219436
	C1042	C	0.116296	0.843717	0.228146
	H1043	H	0.124035	0.846034	0.228876
	C1044	C	0.210325	0.122115	0.546029
	C1045	C	0.204838	0.123887	0.554994
	C1046	C	0.205337	0.136045	0.560830
	C1047	C	0.211372	0.146616	0.557472
	C1048	C	0.216849	0.145196	0.548475
	C1049	C	0.216295	0.132860	0.542860
	H1050	H	0.211718	0.156071	0.561894
	H1051	H	0.220523	0.131687	0.535911
	H1052	H	0.200156	0.115665	0.557461
	N1053	N	0.204068	0.099569	0.542460
	C1054	C	0.209861	0.109223	0.540010
	H1055	H	0.214616	0.108371	0.533305
	N1056	N	0.227909	0.155468	0.536662
	C1057	C	0.222964	0.156556	0.544931
	H1058	H	0.222936	0.165987	0.549594
	N1059	N	0.200708	0.148052	0.576290
	C1060	C	0.199608	0.137611	0.570319
	H1061	H	0.194645	0.129197	0.572080
	C1062	C	0.889985	0.154409	0.764050
	C1063	C	0.884282	0.155380	0.755217
	C1064	C	0.888454	0.155999	0.745437
	C1065	C	0.898542	0.155714	0.744593
	C1066	C	0.904429	0.154818	0.753292
	C1067	C	0.900052	0.154136	0.762972
	H1068	H	0.901808	0.156238	0.737068
	H1069	H	0.904560	0.153407	0.769719
	H1070	H	0.876492	0.155635	0.755982
	N1071	N	0.876312	0.154009	0.775353
	C1072	C	0.885490	0.153608	0.774282
	H1073	H	0.890346	0.152604	0.780851
	N1074	N	0.920520	0.153741	0.760077
	C1075	C	0.915027	0.154580	0.752229
	H1076	H	0.917952	0.155113	0.744431
	N1077	N	0.885895	0.156576	0.727221
	C1078	C	0.882279	0.156834	0.736260
	H1079	H	0.874480	0.157101	0.737663
	C1080	C	0.708698	0.374630	0.454258
	C1081	C	0.704618	0.373367	0.444430
	C1082	C	0.704426	0.360875	0.439016
	C1083	C	0.708436	0.349503	0.443597
	C1084	C	0.712559	0.350461	0.453413
	C1085	C	0.712631	0.363090	0.458664
	H1086	H	0.708323	0.339825	0.439439
	H1087	H	0.715816	0.363893	0.466247
	H1088	H	0.701563	0.382251	0.440984
	N1089	N	0.705470	0.398471	0.455685
	C1090	C	0.708836	0.387871	0.459832
	H1091	H	0.711926	0.388177	0.467574
	N1092	N	0.720526	0.339094	0.467055
	C1093	C	0.716745	0.338384	0.458096
	H1094	H	0.716498	0.328859	0.453543
	N1095	N	0.699836	0.348507	0.423611
	C1096	C	0.700050	0.359798	0.428716
	H1097	H	0.696959	0.369085	0.425680
	C1098	C	0.694974	0.376938	0.038908
	C1099	C	0.691746	0.376684	0.049105
	C1100	C	0.691097	0.364472	0.054401
	C1101	C	0.693797	0.352375	0.049330
	C1102	C	0.697111	0.352328	0.039170
	C1103	C	0.697640	0.364686	0.034035
	H1104	H	0.693347	0.342907	0.053399
	H1105	H	0.700195	0.364710	0.026180
	H1106	H	0.689714	0.386125	0.052924
	N1107	N	0.693638	0.401172	0.037988
	C1108	C	0.695596	0.389871	0.033426
	H1109	H	0.697908	0.389351	0.025385
	N1110	N	0.703438	0.339146	0.024968
	C1111	C	0.700078	0.339475	0.034121
	H1112	H	0.699364	0.330237	0.038628
	N1113	N	0.686957	0.353134	0.069891
	C1114	C	0.687699	0.364325	0.065124
	H1115	H	0.685906	0.374135	0.068761
	C1116	C	0.643771	0.667032	0.666069
	C1117	C	0.649275	0.663542	0.656515
	C1118	C	0.651246	0.671508	0.648081
	H1119	H	0.648870	0.681908	0.647602
	C1120	C	0.656456	0.665114	0.640281
	C1121	C	0.659731	0.670568	0.630224
	C1122	C	0.659441	0.651681	0.640855
	C1123	C	0.664635	0.647989	0.631150
	C1124	C	0.657544	0.643756	0.649323
	H1125	H	0.659905	0.633349	0.649793
	C1126	C	0.652362	0.650171	0.657133
	C1127	C	0.649088	0.644685	0.667164
	N1128	N	0.664519	0.659740	0.625093
	N1129	N	0.643908	0.655273	0.672144
	O1130	O	0.668235	0.637283	0.628800
	O1131	O	0.658570	0.681787	0.626988
	O1132	O	0.650532	0.633569	0.670463
	O1133	O	0.639882	0.677588	0.668244
	C1134	C	0.668586	0.660452	0.614990
	C1135	C	0.639247	0.654151	0.681951
	C1136	C	0.667509	0.649405	0.608115
	C1137	C	0.671476	0.650031	0.598318
	H1138	H	0.663506	0.640460	0.610387
	C1139	C	0.676652	0.661581	0.595303
	H1140	H	0.670391	0.641597	0.592936
	C1141	C	0.677542	0.672664	0.602165
	C1142	C	0.673556	0.672150	0.611967
	H1143	H	0.681407	0.681687	0.599724
	H1144	H	0.674358	0.680744	0.617232
	C1145	C	0.635319	0.641682	0.684938
	C1146	C	0.630745	0.640654	0.694410
	H1147	H	0.635735	0.632818	0.679912
	C1148	C	0.629922	0.652026	0.700953
	H1149	H	0.627727	0.631018	0.696818
	C1150	C	0.633951	0.664437	0.697995
	C1151	C	0.638598	0.665520	0.688561
	H1152	H	0.633551	0.673192	0.703169
	H1153	H	0.641782	0.675135	0.686421
	C1154	C	0.681075	0.662449	0.584768
	O1155	O	0.681221	0.672924	0.580068
	N1156	N	0.685344	0.650447	0.581210
	H1157	H	0.686122	0.642672	0.586122
	C1158	C	0.624791	0.650655	0.711054
	O1159	O	0.626626	0.641654	0.716889
	N1160	N	0.617639	0.660336	0.712770
	H1161	H	0.615510	0.666079	0.706803
	C1162	C	0.644878	0.646767	0.829017
	C1163	C	0.650961	0.647732	0.838487
	C1164	C	0.649170	0.642505	0.848123
	H1165	H	0.642687	0.636724	0.849844
	C1166	C	0.656315	0.645262	0.855394
	C1167	C	0.656733	0.641219	0.866368
	C1168	C	0.664639	0.652776	0.853201
	C1169	C	0.670660	0.653904	0.862714
	C1170	C	0.666448	0.657946	0.843552
	H1171	H	0.672932	0.663723	0.841827
	C1172	C	0.659319	0.655143	0.836271
	C1173	C	0.658947	0.659053	0.825268
	N1174	N	0.665511	0.646748	0.870319
	N1175	N	0.650091	0.653724	0.821344
	O1176	O	0.678341	0.659640	0.863847
	O1177	O	0.650872	0.634664	0.871040
	O1178	O	0.664920	0.665382	0.820574
	O1179	O	0.637081	0.641324	0.827999
	C1180	C	0.668771	0.645308	0.880683
	C1181	C	0.646817	0.655169	0.810968
	C1182	C	0.673343	0.656238	0.885844
	C1183	C	0.676522	0.654827	0.895896
	H1184	H	0.674303	0.665815	0.882057
	C1185	C	0.675274	0.642486	0.900874
	H1186	H	0.679823	0.663436	0.899940
	C1187	C	0.670560	0.631690	0.895709
	C1188	C	0.667336	0.633027	0.885668
	H1189	H	0.669454	0.622218	0.899652
	H1190	H	0.663780	0.624554	0.881736
	C1191	C	0.649084	0.666941	0.805615
	C1192	C	0.645871	0.668289	0.795571
	H1193	H	0.653273	0.675064	0.809242
	C1194	C	0.640289	0.658039	0.790792
	H1195	H	0.647638	0.677329	0.791324
	C1196	C	0.638128	0.646225	0.796129
	C1197	C	0.641363	0.644769	0.806155
	H1198	H	0.634036	0.638094	0.792340
	H1199	H	0.639741	0.635517	0.810151
	C1200	C	0.678635	0.640612	0.911732
	O1201	O	0.673711	0.634614	0.917887
	N1202	N	0.687824	0.646055	0.913885
	H1203	H	0.691587	0.650890	0.908313
	C1204	C	0.636830	0.659789	0.779978
	O1205	O	0.642243	0.662990	0.773118
	N1206	N	0.626888	0.657863	0.778706
	H1207	H	0.622719	0.656318	0.785004
	C1208	C	0.248188	0.772607	0.480423
	C1209	C	0.252710	0.762114	0.486930
	C1210	C	0.255464	0.748951	0.484283
	H1211	H	0.254556	0.744663	0.476617
	C1212	C	0.259445	0.741680	0.492214
	C1213	C	0.263085	0.727425	0.492089
	C1214	C	0.260583	0.747181	0.502095
	C1215	C	0.264992	0.736666	0.508655
	C1216	C	0.257850	0.760348	0.504740
	H1217	H	0.258747	0.764631	0.512410
	C1218	C	0.253867	0.767609	0.496810
	C1219	C	0.250172	0.781823	0.496984
	N1220	N	0.266269	0.725032	0.502206
	N1221	N	0.246837	0.784184	0.486920
	O1222	O	0.267120	0.737691	0.517597
	O1223	O	0.263284	0.719444	0.484946
	O1224	O	0.250037	0.789791	0.504138
	O1225	O	0.246019	0.771592	0.471491
	C1226	C	0.270187	0.712439	0.505549
	C1227	C	0.242586	0.796647	0.483750
	C1228	C	0.268014	0.707775	0.515340
	C1229	C	0.271846	0.695603	0.518620
	H1230	H	0.263272	0.713538	0.520321
	C1231	C	0.277928	0.687987	0.512219
	H1232	H	0.269974	0.691879	0.526117
	C1233	C	0.279930	0.692593	0.502384
	C1234	C	0.276128	0.704762	0.499047
	H1235	H	0.284517	0.686534	0.497393
	H1236	H	0.277830	0.708276	0.491464
	C1237	C	0.236736	0.804065	0.490518
	C1238	C	0.232624	0.816135	0.487414
	H1239	H	0.235345	0.800453	0.498142
	C1240	C	0.234200	0.820894	0.477540
	H1241	H	0.228127	0.822009	0.492624
	C1242	C	0.240154	0.813522	0.470845
	C1243	C	0.244313	0.801451	0.473901
	H1244	H	0.241671	0.817384	0.463301
	H1245	H	0.248976	0.795891	0.468706
	C1246	C	0.282162	0.674827	0.515634
	O1247	O	0.282465	0.664812	0.510045
	N1248	N	0.285878	0.675300	0.525599
	H1249	H	0.286380	0.684418	0.529424
	C1250	C	0.229616	0.833970	0.474473
	O1251	O	0.229612	0.843961	0.480103
	N1252	N	0.225171	0.833448	0.464850
	H1253	H	0.224701	0.824398	0.460934
	C1254	C	0.149106	0.843580	0.326621
	C1255	C	0.155242	0.847200	0.335754
	C1256	C	0.154112	0.843458	0.345903
	H1257	H	0.148233	0.836955	0.348380
	C1258	C	0.161060	0.848738	0.352647
	C1259	C	0.162000	0.846912	0.363963
	C1260	C	0.168583	0.857206	0.349467
	C1261	C	0.174567	0.861194	0.358626
	C1262	C	0.169747	0.860881	0.339314
	H1263	H	0.175606	0.867424	0.336841
	C1264	C	0.162811	0.855571	0.332573
	C1265	C	0.161871	0.857484	0.321280
	N1266	N	0.170184	0.854772	0.367083
	N1267	N	0.153460	0.850104	0.318179
	O1268	O	0.181702	0.868338	0.358922
	O1269	O	0.156916	0.840218	0.369446
	O1270	O	0.167152	0.863905	0.315815
	O1271	O	0.141870	0.836643	0.326361
	C1272	C	0.173442	0.856413	0.377499
	C1273	C	0.149766	0.849484	0.307870
	C1274	C	0.176737	0.869143	0.381127
	C1275	C	0.179853	0.870767	0.391241
	H1276	H	0.176787	0.877744	0.376127
	C1277	C	0.179814	0.859746	0.397795
	H1278	H	0.182364	0.880602	0.394164
	C1279	C	0.176436	0.847063	0.394156
	C1280	C	0.173260	0.845370	0.384055
	H1281	H	0.176167	0.838600	0.399310
	H1282	H	0.170671	0.835545	0.381264
	C1283	C	0.150810	0.860693	0.301550
	C1284	C	0.147201	0.860072	0.291576
	H1285	H	0.154351	0.869900	0.304371
	C1286	C	0.142424	0.848384	0.287819
	H1287	H	0.148025	0.868673	0.286595
	C1288	C	0.141480	0.837152	0.294125
	C1289	C	0.145121	0.837670	0.304093
	H1290	H	0.138022	0.827936	0.291143
	H1291	H	0.144441	0.828871	0.308856
	C1292	C	0.183260	0.861848	0.408669
	O1293	O	0.179763	0.870408	0.414311
	N1294	N	0.191043	0.853673	0.411193
	H1295	H	0.193240	0.846438	0.406016
	C1296	C	0.138533	0.848081	0.277047
	O1297	O	0.143417	0.851368	0.269777
	N1298	N	0.128829	0.844127	0.276252
	H1299	H	0.125000	0.842497	0.282775
	C1300	C	-0.020273	0.826669	0.253755
	C1301	C	-0.009565	0.827335	0.252306
	C1302	C	-0.002256	0.825540	0.259429
	H1303	H	-0.003717	0.823231	0.267356
	C1304	C	0.007073	0.826996	0.255636
	C1305	C	0.016507	0.825902	0.261121
	C1306	C	0.008956	0.830034	0.245441
	C1307	C	0.019653	0.830998	0.244023
	C1308	C	0.001651	0.831786	0.238310
	H1309	H	0.003114	0.834132	0.230389
	C1310	C	-0.007674	0.830345	0.242108
	C1311	C	-0.017093	0.831653	0.236645
	N1312	N	0.023762	0.828524	0.253735
	N1313	N	-0.024370	0.829396	0.244076
	O1314	O	0.024029	0.833348	0.236268
	O1315	O	0.017811	0.823402	0.270002
	O1316	O	-0.018370	0.834080	0.227746
	O1317	O	-0.024662	0.824391	0.261515
	C1318	C	0.033946	0.828908	0.255825
	C1319	C	-0.034560	0.830066	0.242126
	C1320	C	0.039879	0.838496	0.251064
	C1321	C	0.049763	0.838865	0.253035
	H1322	H	0.036780	0.845721	0.245943
	C1323	C	0.053860	0.829650	0.259712
	H1324	H	0.054298	0.846497	0.249509
	C1325	C	0.047864	0.820263	0.264581
	C1326	C	0.037965	0.819824	0.262648
	H1327	H	0.051056	0.813302	0.269883
	H1328	H	0.033428	0.812410	0.266379
	C1329	C	-0.038115	0.839531	0.235306
	C1330	C	-0.048011	0.840255	0.233542
	H1331	H	-0.033227	0.846372	0.231449
	C1332	C	-0.054472	0.831677	0.238589
	H1333	H	-0.050843	0.847526	0.228247
	C1334	C	-0.050864	0.822069	0.245265
	C1335	C	-0.040973	0.821262	0.247053
	H1336	H	-0.055804	0.815078	0.248935
	H1337	H	-0.038247	0.813739	0.252169
	C1338	C	0.064541	0.829897	0.261873
	O1339	O	0.067756	0.828822	0.270452
	N1340	N	0.070317	0.831130	0.253153
	H1341	H	0.067171	0.830296	0.246115
	C1342	C	-0.065131	0.832885	0.236643
	O1343	O	-0.068413	0.833773	0.228076
	N1344	N	-0.070779	0.833306	0.245520
	H1345	H	-0.067444	0.833664	0.252469
	C1346	C	0.210726	0.023859	0.510703
	C1347	C	0.208520	0.011126	0.504592
	C1348	C	0.214836	0.001847	0.500134
	H1349	H	0.222598	0.003005	0.500725
	C1350	C	0.210448	-0.009036	0.494866
	C1351	C	0.214993	-0.020800	0.489313
	C1352	C	0.200451	-0.010467	0.494030
	C1353	C	0.198230	-0.023086	0.487786
	C1354	C	0.194139	-0.001243	0.498549
	H1355	H	0.186376	-0.002412	0.497975
	C1356	C	0.198531	0.009579	0.503886
	C1357	C	0.193978	0.021113	0.509688
	N1358	N	0.207262	-0.028818	0.485237
	N1359	N	0.201689	0.029330	0.513614
	O1360	O	0.190427	-0.027651	0.485343
	O1361	O	0.223457	-0.023150	0.488380
	O1362	O	0.185493	0.023096	0.510895
	O1363	O	0.218554	0.028688	0.512734
	C1364	C	0.208389	-0.041244	0.479386
	C1365	C	0.200506	0.041479	0.519834
	C1366	C	0.202587	-0.043937	0.470787
	C1367	C	0.203606	-0.056068	0.465170
	H1368	H	0.197381	-0.036530	0.468477
	C1369	C	0.210312	-0.065722	0.468134
	H1370	H	0.199272	-0.057893	0.458360
	C1371	C	0.216207	-0.062804	0.476625
	C1372	C	0.215278	-0.050662	0.482248
	H1373	H	0.221522	-0.070185	0.478791
	H1374	H	0.219821	-0.048578	0.488851
	C1375	C	0.192489	0.049726	0.518467
	C1376	C	0.191349	0.061430	0.524564
	H1377	H	0.187167	0.047132	0.512666
	C1378	C	0.198228	0.065138	0.531974
	H1379	H	0.185120	0.067822	0.523646
	C1380	C	0.206210	0.056866	0.533350
	C1381	C	0.207351	0.045085	0.527344
	H1382	H	0.211432	0.059633	0.539246
	H1383	H	0.213480	0.038676	0.528618
	C1384	C	0.211518	-0.079050	0.462339
	O1385	O	0.219399	-0.083994	0.461031
	N1386	N	0.202880	-0.085163	0.458919
	H1387	H	0.196476	-0.080556	0.460347
	C1388	C	0.196956	0.077831	0.538452
	O1389	O	0.190329	0.079148	0.544434
	N1390	N	0.203958	0.087873	0.536730
	H1391	H	0.208948	0.086203	0.531131
	C1392	C	0.854513	0.148349	0.836247
	C1393	C	0.847817	0.147553	0.845227
	C1394	C	0.849952	0.145915	0.855536
	H1395	H	0.857269	0.144951	0.858303
	C1396	C	0.841995	0.145583	0.862032
	C1397	C	0.841645	0.143904	0.873401
	C1398	C	0.832577	0.146838	0.858472
	C1399	C	0.825866	0.146156	0.867428
	C1400	C	0.830434	0.148427	0.848163
	H1401	H	0.823117	0.149379	0.845394
	C1402	C	0.838386	0.148707	0.841669
	C1403	C	0.838687	0.150203	0.830290
	N1404	N	0.831749	0.144303	0.876155
	N1405	N	0.848571	0.149902	0.827525
	O1406	O	0.817205	0.147069	0.867388
	O1407	O	0.848329	0.142433	0.879147
	O1408	O	0.831982	0.151462	0.824534
	O1409	O	0.863190	0.147757	0.836244
	C1410	C	0.828113	0.143026	0.886419
	C1411	C	0.852093	0.150997	0.817216
	C1412	C	0.819228	0.136503	0.888081
	C1413	C	0.815614	0.135447	0.898004
	H1414	H	0.815192	0.132152	0.881686
	C1415	C	0.820800	0.140865	0.906378
	H1416	H	0.808798	0.130234	0.899294
	C1417	C	0.829760	0.147111	0.904696
	C1418	C	0.833401	0.148267	0.894784
	H1419	H	0.833813	0.151094	0.911239
	H1420	H	0.840276	0.153315	0.893604
	C1421	C	0.847059	0.144672	0.809089
	C1422	C	0.850509	0.145753	0.799103
	H1423	H	0.840526	0.138897	0.810534
	C1424	C	0.859004	0.153046	0.797088
	H1425	H	0.846637	0.140928	0.792741
	C1426	C	0.863920	0.159529	0.805245
	C1427	C	0.860530	0.158472	0.815264
	H1428	H	0.870308	0.165629	0.803748
	H1429	H	0.864340	0.163555	0.821524
	C1430	C	0.816894	0.139933	0.917115
	O1431	O	0.821886	0.136651	0.924236
	N1432	N	0.807339	0.144172	0.918072
	H1433	H	0.804350	0.149333	0.912213
	C1434	C	0.862441	0.153954	0.786162
	O1435	O	0.856861	0.155064	0.779080
	N1436	N	0.872430	0.153081	0.784862
	H1437	H	0.876621	0.150721	0.790943
	C1438	C	0.843461	0.147164	0.679123
	C1439	C	0.839927	0.148739	0.668391
	C1440	C	0.832894	0.141229	0.663064
	H1441	H	0.828977	0.132850	0.666437
	C1442	C	0.831276	0.145260	0.653077
	C1443	C	0.824357	0.139453	0.645278
	C1444	C	0.836325	0.156036	0.648724
	C1445	C	0.832785	0.157559	0.637982
	C1446	C	0.843360	0.163545	0.654056
	H1447	H	0.847277	0.171922	0.650683
	C1448	C	0.844992	0.159503	0.664041
	C1449	C	0.851959	0.165220	0.671839
	N1450	N	0.825631	0.147279	0.636383
	N1451	N	0.850657	0.157381	0.680722
	O1452	O	0.835363	0.165812	0.631841
	O1453	O	0.818817	0.130017	0.646214
	O1454	O	0.857575	0.174571	0.670910
	O1455	O	0.840871	0.138895	0.685244
	C1456	C	0.820409	0.145007	0.626963
	C1457	C	0.855927	0.159462	0.690130
	C1458	C	0.825007	0.146912	0.617547
	C1459	C	0.819934	0.144692	0.608418
	H1460	H	0.832533	0.149936	0.617344
	C1461	C	0.810224	0.140614	0.608568
	H1462	H	0.823567	0.145902	0.601139
	C1463	C	0.805718	0.138554	0.617997
	C1464	C	0.810734	0.140783	0.627157
	H1465	H	0.798232	0.135194	0.618067
	H1466	H	0.807108	0.139293	0.634387
	C1467	C	0.865693	0.163253	0.689919
	C1468	C	0.870798	0.165108	0.699066
	H1469	H	0.869286	0.164675	0.682661
	C1470	C	0.866245	0.163147	0.708495
	H1471	H	0.878311	0.168287	0.698911
	C1472	C	0.856446	0.159609	0.708651
	C1473	C	0.851296	0.157720	0.699541
	H1474	H	0.852924	0.158313	0.715991
	H1475	H	0.843717	0.154995	0.699779
	C1476	C	0.804598	0.138100	0.598810
	O1477	O	0.799071	0.128502	0.597771
	N1478	N	0.806116	0.147951	0.591402
	H1479	H	0.809228	0.157016	0.593575
	C1480	C	0.871627	0.164894	0.718480
	O1481	O	0.868455	0.171676	0.725549
	N1482	N	0.880108	0.157377	0.718895
	H1483	H	0.882339	0.152167	0.712503
	C1484	C	0.708840	0.472917	0.490485
	C1485	C	0.707819	0.487513	0.493768
	C1486	C	0.710561	0.493999	0.502925
	H1487	H	0.713980	0.488686	0.509088
	C1488	C	0.708572	0.507809	0.503593
	C1489	C	0.710462	0.517776	0.512239
	C1490	C	0.704174	0.514648	0.495656
	C1491	C	0.703164	0.529245	0.498882
	C1492	C	0.701411	0.508166	0.486510
	H1493	H	0.697986	0.513475	0.480349
	C1494	C	0.703370	0.494354	0.485861
	C1495	C	0.701345	0.484403	0.477252
	N1496	N	0.707020	0.530448	0.508930
	N1497	N	0.704791	0.471731	0.480521
	O1498	O	0.699828	0.538308	0.494014
	O1499	O	0.714102	0.515639	0.520414
	O1500	O	0.697588	0.486542	0.469136
	O1501	O	0.712321	0.463848	0.495228
	C1502	C	0.707356	0.542899	0.514933
	C1503	C	0.704229	0.459312	0.474511
	C1504	C	0.699906	0.552265	0.514155
	C1505	C	0.700278	0.564427	0.519852
	H1506	H	0.693805	0.550029	0.509205
	C1507	C	0.708069	0.567409	0.526378
	H1508	H	0.694436	0.571576	0.519346
	C1509	C	0.715389	0.557898	0.527282
	C1510	C	0.715087	0.545729	0.521573
	H1511	H	0.721335	0.560175	0.532472
	H1512	H	0.720879	0.538567	0.522241
	C1513	C	0.696096	0.456401	0.468468
	C1514	C	0.695587	0.444352	0.462641
	H1515	H	0.690185	0.463439	0.468337
	C1516	C	0.703105	0.435043	0.462798
	H1517	H	0.689329	0.442032	0.457893
	C1518	C	0.711283	0.438115	0.468751
	C1519	C	0.711843	0.450140	0.474618
	H1520	H	0.717303	0.431224	0.468652
	H1521	H	0.718206	0.452479	0.479155
	C1522	C	0.708592	0.580587	0.532490
	O1523	O	0.710782	0.580982	0.541484
	N1524	N	0.706632	0.592013	0.526711
	H1525	H	0.706736	0.591031	0.518912
	C1526	C	0.702262	0.422183	0.456334
	O1527	O	0.698711	0.422048	0.447831
	N1528	N	0.705647	0.410507	0.460971
	H1529	H	0.707601	0.410978	0.468486
	C1530	C	0.761466	0.229380	0.515219
	C1531	C	0.756356	0.239787	0.509149
	C1532	C	0.755944	0.253779	0.510824
	H1533	H	0.759571	0.258922	0.517196
	C1534	C	0.750517	0.260685	0.503715
	C1535	C	0.748564	0.275571	0.503213
	C1536	C	0.745828	0.254069	0.495519
	C1537	C	0.740720	0.264485	0.489453
	C1538	C	0.746240	0.240075	0.493845
	H1539	H	0.742610	0.234935	0.487473
	C1540	C	0.751665	0.233167	0.500956
	C1541	C	0.753617	0.218278	0.501468
	N1542	N	0.742636	0.277172	0.494484
	N1543	N	0.759550	0.216691	0.510196
	O1544	O	0.735953	0.262681	0.481805
	O1545	O	0.751354	0.284505	0.509005
	O1546	O	0.750819	0.209329	0.495695
	O1547	O	0.766233	0.231191	0.522867
	C1548	C	0.739053	0.289964	0.491139
	C1549	C	0.763124	0.203912	0.513574
	C1550	C	0.729811	0.290666	0.486889
	C1551	C	0.726371	0.303051	0.483564
	H1552	H	0.725299	0.281628	0.486282
	C1553	C	0.732107	0.314845	0.484391
	H1554	H	0.719143	0.303622	0.480465
	C1555	C	0.741260	0.314112	0.488812
	C1556	C	0.744759	0.301761	0.492141
	H1557	H	0.745609	0.323331	0.489581
	H1558	H	0.751904	0.301326	0.495422
	C1559	C	0.757397	0.192126	0.512658
	C1560	C	0.760877	0.179806	0.516073
	H1561	H	0.750249	0.192550	0.509382
	C1562	C	0.770035	0.179101	0.520488
	H1563	H	0.756511	0.170595	0.515381
	C1564	C	0.775801	0.190874	0.521202
	C1565	C	0.772379	0.203225	0.517795
	H1566	H	0.783036	0.190308	0.524283
	H1567	H	0.776909	0.212252	0.518318
	C1568	C	0.728568	0.328304	0.480766
	O1569	O	0.729568	0.338729	0.485829
	N1570	N	0.724324	0.327746	0.471045
	H1571	H	0.724589	0.318925	0.466824
	C1572	C	0.773551	0.165707	0.524268
	O1573	O	0.772594	0.155198	0.519304
	N1574	N	0.777723	0.166466	0.534022
	H1575	H	0.777403	0.175369	0.538133
	C1576	C	0.692532	0.471097	0.001043
	C1577	C	0.693382	0.485422	-0.002487
	C1578	C	0.692227	0.490426	-0.012283
	H1579	H	0.690442	0.483920	-0.018843
	C1580	C	0.693525	0.504409	-0.013034
	C1581	C	0.692766	0.513072	-0.022265
	C1582	C	0.695882	0.512786	-0.004602
	C1583	C	0.696807	0.527103	-0.008142
	C1584	C	0.696995	0.507788	0.005199
	H1585	H	0.698766	0.514298	0.011761
	C1586	C	0.695641	0.493813	0.005959
	C1587	C	0.696186	0.485197	0.015227
	N1588	N	0.694822	0.526569	-0.018798
	N1589	N	0.694236	0.471657	0.011764
	O1590	O	0.698794	0.537178	-0.003099
	O1591	O	0.690846	0.509501	-0.030932
	O1592	O	0.697872	0.488873	0.023926
	O1593	O	0.690817	0.460999	-0.004084
	C1594	C	0.694805	0.538229	-0.025213
	C1595	C	0.693919	0.460058	0.018269
	C1596	C	0.701827	0.548472	-0.023870
	C1597	C	0.701767	0.559826	-0.030060
	H1598	H	0.707349	0.547482	-0.018097
	C1599	C	0.694657	0.561176	-0.037567
	H1600	H	0.707376	0.567538	-0.029161
	C1601	C	0.687768	0.550774	-0.038961
	C1602	C	0.687797	0.539364	-0.032834
	H1603	H	0.682370	0.551745	-0.044903
	H1604	H	0.682373	0.531459	-0.033937
	C1605	C	0.699975	0.459529	0.026821
	C1606	C	0.699596	0.448293	0.033125
	H1607	H	0.705000	0.467767	0.028558
	C1608	C	0.693290	0.437406	0.030924
	H1609	H	0.704201	0.447828	0.039818
	C1610	C	0.687199	0.438014	0.022413
	C1611	C	0.687493	0.449258	0.016115
	H1612	H	0.682122	0.429749	0.020846
	H1613	H	0.682652	0.449678	0.009641
	C1614	C	0.694329	0.573350	-0.044354
	O1615	O	0.692109	0.572308	-0.053335
	N1616	N	0.696601	0.585784	-0.039454
	H1617	H	0.697357	0.586185	-0.031700
	C1618	C	0.693022	0.425373	0.037821
	O1619	O	0.692034	0.426604	0.047030
	N1620	N	0.694282	0.412865	0.032725
	H1621	H	0.695876	0.412739	0.025108
	C1622	C	0.743005	0.222994	-0.019636
	C1623	C	0.738251	0.234317	-0.013773
	C1624	C	0.735861	0.247219	-0.016985
	H1625	H	0.737254	0.250571	-0.024696
	C1626	C	0.731611	0.255538	-0.009544
	C1627	C	0.728297	0.269896	-0.010302
	C1628	C	0.729874	0.251251	0.000403
	C1629	C	0.725402	0.262695	0.006380
	C1630	C	0.732220	0.238332	0.003603
	H1631	H	0.730864	0.235002	0.011327
	C1632	C	0.736482	0.230026	-0.003834
	C1633	C	0.739980	0.215784	-0.002986
	N1634	N	0.724740	0.273621	-0.000454
	N1635	N	0.743888	0.212199	-0.012708
	O1636	O	0.722818	0.262807	0.015200
	O1637	O	0.728584	0.277019	-0.017678
	O1638	O	0.739589	0.208651	0.004381
	O1639	O	0.745664	0.222905	-0.028431
	C1640	C	0.721156	0.286829	0.002355
	C1641	C	0.748469	0.199501	-0.015131
	C1642	C	0.723204	0.292472	0.012071
	C1643	C	0.719706	0.305244	0.014856
	H1644	H	0.727589	0.286985	0.017380
	C1645	C	0.714081	0.312500	0.008035
	H1646	H	0.721488	0.309703	0.022301
	C1647	C	0.712219	0.306911	-0.001728
	C1648	C	0.715697	0.294134	-0.004577
	H1649	H	0.707999	0.312687	-0.007045
	H1650	H	0.714118	0.289861	-0.012111
	C1651	C	0.753927	0.193062	-0.007708
	C1652	C	0.758517	0.180895	-0.010152
	H1653	H	0.754687	0.197540	-0.000100
	C1654	C	0.757798	0.175071	-0.020000
	H1655	H	0.762759	0.175809	-0.004454
	C1656	C	0.752176	0.181410	-0.027336
	C1657	C	0.747539	0.193563	-0.024942
	H1658	H	0.751332	0.176707	-0.034881
	H1659	H	0.743161	0.198346	-0.030642
	C1660	C	0.710191	0.326270	0.010993
	O1661	O	0.710347	0.335704	0.005186
	N1662	N	0.706230	0.327025	0.020838
	H1663	H	0.705255	0.318296	0.024759
	C1664	C	0.763076	0.162127	-0.022462
	O1665	O	0.762753	0.152424	-0.016915
	N1666	N	0.768538	0.162516	-0.031460
	H1667	H	0.768999	0.171385	-0.035293
	C1668	C	0.701273	0.620844	0.543899
	C1669	C	0.703996	0.632207	0.538233
	C1670	C	0.702848	0.645487	0.542179
	C1671	C	0.698796	0.647296	0.551970
	C1672	C	0.696031	0.636112	0.557830
	C1673	C	0.697365	0.622952	0.553717
	H1674	H	0.697820	0.657517	0.555080
	H1675	H	0.695271	0.614234	0.558164
	H1676	H	0.707089	0.630656	0.530678
	N1677	N	0.705588	0.604821	0.530534
	C1678	C	0.702415	0.606909	0.539647
	H1679	H	0.700118	0.598638	0.544615
	N1680	N	0.689268	0.649621	0.571667
	C1681	C	0.691753	0.637927	0.568122
	H1682	H	0.690608	0.628694	0.572548
	N1683	N	0.705526	0.669439	0.539502
	C1684	C	0.705958	0.657163	0.536039
	H1685	H	0.708863	0.654797	0.528383
	C1686	C	0.695749	0.634465	0.938889
	C1687	C	0.699988	0.646058	0.943595
	C1688	C	0.704043	0.645589	0.953431
	C1689	C	0.703830	0.633215	0.958562
	C1690	C	0.699690	0.621443	0.954027
	C1691	C	0.695665	0.622228	0.944194
	H1692	H	0.706961	0.632779	0.966159
	H1693	H	0.692413	0.613188	0.940649
	H1694	H	0.700051	0.655541	0.939548
	N1695	N	0.692155	0.645721	0.923197
	C1696	C	0.691388	0.635045	0.928589
	H1697	H	0.687748	0.625728	0.925724
	N1698	N	0.696596	0.597424	0.955168
	C1699	C	0.699603	0.608503	0.959521
	H1700	H	0.702316	0.608807	0.967425
	N1701	N	0.712268	0.657586	0.967196
	C1702	C	0.708441	0.657901	0.958270
	H1703	H	0.708325	0.667246	0.953854
	C1704	C	0.201889	0.866293	0.435259
	C1705	C	0.206604	0.855016	0.439183
	C1706	C	0.211679	0.855968	0.448489
	C1707	C	0.212000	0.868497	0.453871
	C1708	C	0.207291	0.879910	0.450178
	C1709	C	0.202258	0.878643	0.440870
	H1710	H	0.215917	0.869343	0.461059
	H1711	H	0.198616	0.887420	0.437952
	H1712	H	0.206298	0.845431	0.434928
	N1713	N	0.195967	0.854274	0.420172
	C1714	C	0.196627	0.865417	0.425419
	H1715	H	0.193610	0.874983	0.422838
	N1716	N	0.202327	0.902907	0.453513
	C1717	C	0.207621	0.892951	0.456022
	H1718	H	0.212364	0.893466	0.462757
	N1719	N	0.220912	0.844687	0.461227
	C1720	C	0.216528	0.843990	0.452586
	H1721	H	0.216080	0.834520	0.447988
	C1722	C	0.888968	0.838238	0.242830
	C1723	C	0.883760	0.839015	0.252048
	C1724	C	0.888422	0.838541	0.261575
	C1725	C	0.898491	0.837239	0.261770
	C1726	C	0.903880	0.836358	0.252679
	C1727	C	0.899022	0.836873	0.243263
	H1728	H	0.902129	0.836850	0.269101
	H1729	H	0.903150	0.836269	0.236211
	H1730	H	0.875984	0.840054	0.251782
	N1731	N	0.874966	0.841299	0.232315
	C1732	C	0.884029	0.839043	0.232845
	H1733	H	0.888514	0.837951	0.225949
	N1734	N	0.919496	0.834377	0.244816
	C1735	C	0.914469	0.835049	0.253049
	H1736	H	0.917799	0.834696	0.260664
	N1737	N	0.887012	0.840716	0.279907
	C1738	C	0.882808	0.839493	0.271180
	H1739	H	0.874929	0.839629	0.270379
	C1740	C	0.797218	0.131917	0.942074
	C1741	C	0.791004	0.142332	0.945257
	C1742	C	0.785403	0.141237	0.954165
	C1743	C	0.786017	0.129376	0.959874
	C1744	C	0.792168	0.118794	0.956882
	C1745	C	0.797773	0.120246	0.948001
	H1746	H	0.781695	0.128456	0.966757
	H1747	H	0.802591	0.112153	0.945668
	H1748	H	0.790610	0.151420	0.940764
	N1749	N	0.801900	0.143104	0.926645
	C1750	C	0.803052	0.133156	0.932659
	H1751	H	0.808121	0.124931	0.931004
	N1752	N	0.798612	0.096922	0.960655
	C1753	C	0.792690	0.106384	0.962981
	H1754	H	0.787800	0.105671	0.969568
	N1755	N	0.774004	0.151743	0.965660
	C1756	C	0.779091	0.152464	0.957486
	H1757	H	0.779092	0.161508	0.952727
	C1758	C	0.789406	0.144246	0.552079
	C1759	C	0.789299	0.131455	0.547071
	C1760	C	0.793239	0.120062	0.551681
	C1761	C	0.797298	0.121627	0.561500
	C1762	C	0.797486	0.134278	0.566701
	C1763	C	0.793523	0.145507	0.561887
	H1764	H	0.800314	0.112853	0.565143
	H1765	H	0.793616	0.155291	0.565878
	H1766	H	0.786122	0.130410	0.539495
	N1767	N	0.781496	0.155222	0.538200
	C1768	C	0.785243	0.156174	0.547168
	H1769	H	0.785481	0.165825	0.551562
	N1770	N	0.802477	0.147160	0.581753
	C1771	C	0.801712	0.135595	0.577068
	H1772	H	0.804298	0.126183	0.580399
	N1773	N	0.797200	0.096424	0.550180
	C1774	C	0.793074	0.106676	0.546317
	H1775	H	0.789316	0.105960	0.538919
	C1776	C	0.742391	0.778630	0.485502
	C1777	C	0.738734	0.765770	0.490122
	C1778	C	0.733270	0.764045	0.498952
	H1779	H	0.730876	0.772531	0.503692
	C1780	C	0.731156	0.750609	0.501287
	C1781	C	0.725614	0.745124	0.510167
	C1782	C	0.734282	0.739677	0.495217
	C1783	C	0.730858	0.726798	0.499984
	C1784	C	0.739714	0.741403	0.486368
	H1785	H	0.742139	0.732913	0.481653
	C1786	C	0.741842	0.754836	0.484045
	C1787	C	0.747562	0.760294	0.475288
	N1788	N	0.725783	0.730767	0.508975
	N1789	N	0.747678	0.774634	0.476651
	O1790	O	0.732068	0.715298	0.496914
	O1791	O	0.721798	0.751449	0.517028
	O1792	O	0.751329	0.753953	0.468401
	O1793	O	0.741221	0.790128	0.488592
	C1794	C	0.721552	0.721419	0.516047
	C1795	C	0.752789	0.783914	0.470176
	C1796	C	0.726234	0.709294	0.518139
	C1797	C	0.722132	0.700166	0.524946
	H1798	H	0.733091	0.707083	0.514570
	C1799	C	0.713305	0.702964	0.529691
	H1800	H	0.725873	0.690930	0.526732
	C1801	C	0.708762	0.715212	0.527716
	C1802	C	0.712818	0.724400	0.520911
	H1803	H	0.702012	0.717425	0.531569
	H1804	H	0.709172	0.733770	0.519371
	C1805	C	0.761647	0.780274	0.465854
	C1806	C	0.766689	0.789442	0.459793
	H1807	H	0.764662	0.770432	0.467287
	C1808	C	0.763023	0.802328	0.458028
	H1809	H	0.773566	0.786735	0.456412
	C1810	C	0.754059	0.805801	0.462180
	C1811	C	0.748962	0.796676	0.468231
	H1812	H	0.751026	0.815601	0.460557
	H1813	H	0.742021	0.799429	0.471371
	C1814	C	0.708742	0.693124	0.536995
	O1815	O	0.705278	0.696817	0.545102
	N1816	N	0.708704	0.679615	0.533439
	H1817	H	0.710733	0.677595	0.526072
	C1818	C	0.768807	0.812162	0.451736
	O1819	O	0.772479	0.808862	0.443634
	N1820	N	0.769782	0.825144	0.456235
	H1821	H	0.767079	0.826826	0.463401
	C1822	C	0.755433	0.769624	0.016613
	C1823	C	0.750894	0.758609	0.010040
	C1824	C	0.748189	0.745450	0.012593
	H1825	H	0.749172	0.741573	0.020212
	C1826	C	0.744140	0.737621	0.004636
	C1827	C	0.740497	0.723224	0.004681
	C1828	C	0.742894	0.742595	-0.005183
	C1829	C	0.738395	0.731580	-0.011778
	C1830	C	0.745592	0.755755	-0.007735
	H1831	H	0.744612	0.759632	-0.015355
	C1832	C	0.749641	0.763578	0.000222
	C1833	C	0.753299	0.777960	0.000154
	N1834	N	0.737170	0.720216	-0.005410
	N1835	N	0.756683	0.780965	0.010221
	O1836	O	0.736170	0.732077	-0.020687
	O1837	O	0.740401	0.715576	0.011751
	O1838	O	0.753374	0.785589	-0.006928
	O1839	O	0.757675	0.769135	0.025517
	C1840	C	0.733080	0.707355	-0.008772
	C1841	C	0.760870	0.793799	0.013509
	C1842	C	0.734984	0.702263	-0.018662
	C1843	C	0.730948	0.689854	-0.021961
	H1844	H	0.739673	0.707887	-0.023705
	C1845	C	0.724937	0.682420	-0.015476
	H1846	H	0.732595	0.685801	-0.029543
	C1847	C	0.723214	0.687448	-0.005544
	C1848	C	0.727215	0.699859	-0.002190
	H1849	H	0.718681	0.681529	-0.000494
	H1850	H	0.725717	0.703695	0.005470
	C1851	C	0.766679	0.801208	0.006817
	C1852	C	0.770747	0.813621	0.010060
	H1853	H	0.768076	0.797320	-0.000850
	C1854	C	0.769160	0.818739	0.019993
	H1855	H	0.775222	0.819484	0.004917
	C1856	C	0.763229	0.811379	0.026603
	C1857	C	0.759118	0.798965	0.023412
	H1858	H	0.761695	0.815503	0.034192
	H1859	H	0.754480	0.793407	0.028546
	C1860	C	0.720435	0.669046	-0.018913
	O1861	O	0.720314	0.659192	-0.013510
	N1862	N	0.716243	0.669143	-0.028656
	H1863	H	0.715756	0.678125	-0.032308
	C1864	C	0.773717	0.832151	0.023248
	O1865	O	0.773722	0.841920	0.017760
	N1866	N	0.778132	0.832188	0.032883
	H1867	H	0.778625	0.823288	0.036640
	C1868	C	0.851640	0.843552	0.172176
	C1869	C	0.845734	0.847403	0.163121
	C1870	C	0.847097	0.844199	0.152782
	H1871	H	0.853022	0.838034	0.150059
	C1872	C	0.840318	0.849542	0.146196
	C1873	C	0.839631	0.848205	0.134762
	C1874	C	0.832734	0.857570	0.149702
	C1875	C	0.826956	0.861740	0.140650
	C1876	C	0.831340	0.860714	0.160040
	H1877	H	0.825434	0.866912	0.162766
	C1878	C	0.838107	0.855339	0.166622
	C1879	C	0.838782	0.856731	0.178042
	N1880	N	0.831512	0.855861	0.131923
	N1881	N	0.847095	0.849490	0.180899
	O1882	O	0.819839	0.868624	0.140612
	O1883	O	0.844838	0.841973	0.129005
	O1884	O	0.833392	0.862703	0.183761
	O1885	O	0.858851	0.836861	0.172190
	C1886	C	0.828421	0.857719	0.121546
	C1887	C	0.850540	0.848482	0.191250
	C1888	C	0.825114	0.870393	0.118575
	C1889	C	0.822130	0.872204	0.108507
	H1890	H	0.824945	0.878809	0.124051
	C1891	C	0.822319	0.861422	0.101345
	H1892	H	0.819602	0.881998	0.106097
	C1893	C	0.825724	0.848805	0.104329
	C1894	C	0.828764	0.846928	0.114379
	H1895	H	0.826117	0.840541	0.098712
	H1896	H	0.831361	0.837145	0.116658
	C1897	C	0.849408	0.859342	0.198245
	C1898	C	0.852794	0.858354	0.208254
	H1899	H	0.845974	0.868563	0.195922
	C1900	C	0.857429	0.846646	0.211384
	H1901	H	0.851904	0.866680	0.213754
	C1902	C	0.858448	0.835752	0.204403
	C1903	C	0.855033	0.836637	0.194391
	H1904	H	0.861786	0.826507	0.206888
	H1905	H	0.855770	0.828095	0.189096
	C1906	C	0.818980	0.863672	0.090544
	O1907	O	0.822410	0.872669	0.085451
	N1908	N	0.811362	0.855033	0.087448
	H1909	H	0.809164	0.847571	0.092244
	C1910	C	0.861106	0.845975	0.222211
	O1911	O	0.856107	0.848849	0.229553
	N1912	N	0.870768	0.842257	0.222970
	H1913	H	0.874690	0.840969	0.216433
	C1914	C	0.856803	0.859804	0.334443
	C1915	C	0.850393	0.859302	0.343655
	C1916	C	0.849656	0.868579	0.351822
	H1917	H	0.853976	0.877830	0.352332
	C1918	C	0.842965	0.865095	0.359291
	C1919	C	0.840337	0.872671	0.368953
	C1920	C	0.837441	0.853143	0.358673
	C1921	C	0.831127	0.852575	0.367970
	C1922	C	0.838148	0.843902	0.350479
	H1923	H	0.833824	0.834655	0.349963
	C1924	C	0.844810	0.847417	0.342984
	C1925	C	0.847354	0.839962	0.333240
	N1926	N	0.833209	0.864600	0.373804
	N1927	N	0.854593	0.847943	0.328460
	O1928	O	0.825382	0.843820	0.370190
	O1929	O	0.843558	0.883411	0.372114
	O1930	O	0.843974	0.829366	0.329985
	O1931	O	0.862740	0.868406	0.332435
	C1932	C	0.828679	0.868149	0.383386
	C1933	C	0.859116	0.844505	0.318832
	C1934	C	0.826783	0.858135	0.390573
	C1935	C	0.822385	0.861599	0.399870
	H1936	H	0.828838	0.847748	0.388942
	C1937	C	0.819731	0.875029	0.402061
	H1938	H	0.821180	0.853863	0.405510
	C1939	C	0.821785	0.884995	0.394888
	C1940	C	0.826210	0.881629	0.385592
	H1941	H	0.819863	0.895429	0.396680
	H1942	H	0.827680	0.889422	0.380082
	C1943	C	0.860665	0.830902	0.316015
	C1944	C	0.865114	0.827666	0.306702
	H1945	H	0.858491	0.822859	0.321056
	C1946	C	0.868162	0.837903	0.300157
	H1947	H	0.866302	0.817154	0.304421
	C1948	C	0.866486	0.851476	0.302942
	C1949	C	0.861989	0.854786	0.312210
	H1950	H	0.868592	0.859427	0.297757
	H1951	H	0.860637	0.865312	0.314209
	C1952	C	0.814952	0.879139	0.412021
	O1953	O	0.816822	0.889877	0.416400
	N1954	N	0.808126	0.869811	0.415642
	H1955	H	0.806078	0.861745	0.411086
	C1956	C	0.873089	0.834209	0.290207
	O1957	O	0.869898	0.825467	0.284394
	N1958	N	0.881701	0.841445	0.288621
	H1959	H	0.884759	0.846665	0.294664
	C1960	C	0.792071	0.022383	-0.008267
	C1961	C	0.794287	0.009931	-0.002396
	C1962	C	0.787981	0.000472	0.001833
	H1963	H	0.780218	0.001244	0.001221
	C1964	C	0.792378	-0.010064	0.006893
	C1965	C	0.787845	-0.021908	0.012159
	C1966	C	0.802375	-0.010997	0.007756
	C1967	C	0.804606	-0.023356	0.013734
	C1968	C	0.808677	-0.001591	0.003469
	H1969	H	0.816441	-0.002376	0.004061
	C1970	C	0.804277	0.008878	-0.001667
	C1971	C	0.808821	0.020460	-0.007215
	N1972	N	0.795582	-0.029460	0.016097
	N1973	N	0.801104	0.028192	-0.011028
	O1974	O	0.812412	-0.027485	0.016123
	O1975	O	0.779385	-0.024639	0.012990
	O1976	O	0.817305	0.022811	-0.008332
	O1977	O	0.784239	0.026789	-0.010238
	C1978	C	0.794467	-0.041818	0.021637
	C1979	C	0.802281	0.040171	-0.017052
	C1980	C	0.800230	-0.044050	0.030211
	C1981	C	0.799222	-0.056115	0.035523
	H1982	H	0.805396	-0.036342	0.032740
	C1983	C	0.792568	-0.066158	0.032275
	H1984	H	0.803523	-0.057584	0.042321
	C1985	C	0.786713	-0.063703	0.023812
	C1986	C	0.787629	-0.051632	0.018494
	H1987	H	0.781435	-0.071387	0.021425
	H1988	H	0.783116	-0.049906	0.011911
	C1989	C	0.810278	0.048833	-0.015529
	C1990	C	0.811427	0.060344	-0.021462
	H1991	H	0.815582	0.046705	-0.009739
	C1992	C	0.804574	0.063454	-0.028856
	H1993	H	0.817646	0.067046	-0.020428
	C1994	C	0.796606	0.054774	-0.030380
	C1995	C	0.795458	0.043180	-0.024542
	H1996	H	0.791406	0.057065	-0.036268
	H1997	H	0.789344	0.036448	-0.025936
	C1998	C	0.791367	-0.079427	0.037731
	O1999	O	0.783496	-0.084742	0.038821
	N2000	N	0.799995	-0.085040	0.041108
	H2001	H	0.806393	-0.080141	0.039882
	C2002	C	0.805882	0.075911	-0.035187
	O2003	O	0.812660	0.077353	-0.040947
	N2004	N	0.798738	0.085609	-0.033608
	H2005	H	0.793645	0.083961	-0.028137
	C2006	C	0.791409	0.021116	0.517087
	C2007	C	0.791816	0.006333	0.514145
	C2008	C	0.787466	-0.000635	0.505930
	H2009	H	0.783011	0.004369	0.500393
	C2010	C	0.789222	-0.014518	0.505379
	C2011	C	0.785631	-0.024992	0.497731
	C2012	C	0.794945	-0.020961	0.512519
	C2013	C	0.795295	-0.035760	0.509663
	C2014	C	0.799288	-0.014004	0.520739
	H2015	H	0.803715	-0.019016	0.526299
	C2016	C	0.797498	-0.000138	0.521312
	C2017	C	0.800909	0.010237	0.529117
	N2018	N	0.789478	-0.037545	0.500782
	N2019	N	0.796965	0.022761	0.526164
	O2020	O	0.799648	-0.044512	0.513912
	O2021	O	0.780480	-0.023304	0.490449
	O2022	O	0.805994	0.008506	0.536443
	O2023	O	0.787222	0.029966	0.512767
	C2024	C	0.787539	-0.050446	0.495725
	C2025	C	0.798274	0.035418	0.531753
	C2026	C	0.786665	-0.062217	0.501469
	C2027	C	0.784770	-0.074713	0.496567
	H2028	H	0.787363	-0.061668	0.509719
	C2029	C	0.783765	-0.075681	0.485917
	H2030	H	0.784057	-0.083881	0.500968
	C2031	C	0.784499	-0.063842	0.480224
	C2032	C	0.786416	-0.051300	0.485071
	H2033	H	0.783397	-0.064392	0.472008
	H2034	H	0.787057	-0.042241	0.480584
	C2035	C	0.798390	0.035637	0.542470
	C2036	C	0.799587	0.047946	0.547863
	H2037	H	0.797491	0.026304	0.546588
	C2038	C	0.800625	0.060153	0.542686
	H2039	H	0.799712	0.048224	0.556176
	C2040	C	0.800669	0.059829	0.531957
	C2041	C	0.799460	0.047557	0.526502
	H2042	H	0.801820	0.069155	0.527862
	H2043	H	0.799539	0.047376	0.518215
	C2044	C	0.781700	-0.089392	0.480941
	O2045	O	0.776326	-0.097653	0.484811
	N2046	N	0.786903	-0.092101	0.471954
	H2047	H	0.792023	-0.085318	0.469659
	C2048	C	0.801855	0.073219	0.548842
	O2049	O	0.806753	0.073916	0.556547
	N2050	N	0.796787	0.084234	0.545098
	H2051	H	0.792101	0.082672	0.539174
	C2052	C	0.789033	0.880431	0.452848
	C2053	C	0.783208	0.870017	0.456805
	C2054	C	0.782097	0.857446	0.451605
	C2055	C	0.786896	0.855406	0.442231
	C2056	C	0.792763	0.865638	0.438088
	C2057	C	0.793791	0.878087	0.443498
	H2058	H	0.786068	0.845707	0.438181
	H2059	H	0.798338	0.886017	0.440350
	H2060	H	0.779543	0.871750	0.464053
	N2061	N	0.785628	0.895821	0.466875
	C2062	C	0.790177	0.893556	0.458475
	H2063	H	0.795063	0.901144	0.455166
	N2064	N	0.803597	0.872311	0.424698
	C2065	C	0.797811	0.863312	0.428251
	H2066	H	0.796487	0.853524	0.424252
	N2067	N	0.775159	0.834881	0.451611
	C2068	C	0.776101	0.846576	0.456065
	H2069	H	0.772640	0.848914	0.463455
	C2070	C	0.800910	0.866906	0.063549
	C2071	C	0.796304	0.855319	0.059252
	C2072	C	0.791347	0.855841	0.049893
	C2073	C	0.791033	0.868255	0.044834
	C2074	C	0.795637	0.879978	0.048904
	C2075	C	0.800555	0.879137	0.058259
	H2076	H	0.787201	0.868769	0.037611
	H2077	H	0.804108	0.888155	0.061470
	H2078	H	0.796596	0.845826	0.063262
	N2079	N	0.806618	0.855381	0.078387
	C2080	C	0.806027	0.866433	0.073462
	H2081	H	0.808974	0.876177	0.076365
	N2082	N	0.800535	0.903167	0.046228
	C2083	C	0.795303	0.892902	0.043404
	H2084	H	0.790674	0.893033	0.036587
	N2085	N	0.782299	0.843768	0.036764
	C2086	C	0.786605	0.843525	0.045442
	H2087	H	0.787050	0.834189	0.049835
