data_Molecule from CHK

_cell_length_a		103.766544
_cell_length_b		102.455065
_cell_length_c		203.865940
_cell_angle_alpha	88.931472
_cell_angle_beta	88.222239
_cell_angle_gamma	91.289038
_symmetry_space_group_name_H-M	'P 1'
_symmetry_Int_Tables_number		1

loop_
	_symmetry_equiv_pos_as_xyz
	x,y,z

loop_
	_atom_site_label
	_atom_site_type_symbol
	_atom_site_fract_x
	_atom_site_fract_y
	_atom_site_fract_z
	C0	C	-0.030623	0.008828	0.134564
	C1	C	-0.018703	0.009144	0.137836
	C2	C	-0.018502	0.008491	0.144718
	H3	H	-0.027484	0.007749	0.147554
	C4	C	-0.006748	0.008780	0.147955
	C5	C	-0.006607	0.008093	0.154932
	C6	C	0.004876	0.009739	0.144242
	H7	H	0.013957	0.009965	0.146711
	C8	C	0.004826	0.010400	0.137357
	C9	C	0.016623	0.011347	0.133607
	C10	C	-0.007001	0.010097	0.134191
	H11	H	-0.007101	0.010592	0.128887
	C12	C	0.026535	0.012107	0.130315
	C13	C	0.038004	0.012947	0.126326
	C14	C	-0.006409	0.007495	0.160865
	C15	C	-0.006083	0.006788	0.167823
	C16	C	-0.040621	0.008527	0.131656
	C17	C	-0.052180	0.008150	0.128103
	C18	C	0.037578	0.016667	0.119649
	C19	C	0.048762	0.017435	0.115739
	H20	H	0.028376	0.018922	0.117589
	C21	C	0.060812	0.014536	0.118313
	H22	H	0.048275	0.020298	0.110612
	C23	C	0.061207	0.010849	0.124982
	C24	C	0.050057	0.010059	0.128921
	H25	H	0.070439	0.008589	0.127030
	H26	H	0.050565	0.007185	0.134043
	C27	C	-0.055613	-0.002924	0.124498
	C28	C	-0.066845	-0.003221	0.120981
	H29	H	-0.049373	-0.011256	0.124483
	C30	C	-0.075109	0.007472	0.120910
	H31	H	-0.069383	-0.011799	0.118216
	C32	C	-0.071679	0.018500	0.124535
	C33	C	-0.060456	0.018863	0.128062
	H34	H	-0.077939	0.026820	0.124542
	H35	H	-0.057940	0.027437	0.130818
	C36	C	-0.009196	-0.004971	0.171265
	C37	C	-0.008837	-0.005641	0.178061
	H38	H	-0.011873	-0.013528	0.168534
	C39	C	-0.005368	0.005354	0.181700
	H40	H	-0.011246	-0.014755	0.180639
	C41	C	-0.002276	0.017078	0.178248
	C42	C	-0.002617	0.017817	0.171454
	H43	H	0.000421	0.025633	0.180993
	H44	H	-0.000192	0.026936	0.168889
	N45	N	0.083664	0.012755	0.116382
	C46	C	0.072592	0.015331	0.114116
	H47	H	0.071491	0.018268	0.108959
	N48	N	-0.090100	-0.002770	0.113774
	C49	C	-0.086954	0.007202	0.117134
	H50	H	-0.092953	0.015888	0.117317
	N51	N	-0.001853	0.014535	0.192261
	C52	C	-0.004985	0.004561	0.188900
	H53	H	-0.007537	-0.004906	0.191261
	C54	C	0.003868	0.013614	0.260335
	C55	C	0.002118	0.012060	0.253134
	C56	C	0.005922	0.020448	0.247957
	H57	H	0.010934	0.029662	0.248692
	C58	C	0.002798	0.016143	0.241765
	C59	C	0.005375	0.022652	0.235210
	C60	C	-0.003675	0.004294	0.240813
	C61	C	-0.005441	0.002762	0.233610
	C62	C	-0.007479	-0.004095	0.245991
	H63	H	-0.012495	-0.013306	0.245256
	C64	C	-0.004365	0.000215	0.252185
	C65	C	-0.006986	-0.006260	0.258746
	N66	N	0.000175	0.014121	0.230524
	N67	N	-0.001797	0.002288	0.263428
	O68	O	-0.010516	-0.006238	0.230886
	O69	O	0.010708	0.033041	0.234060
	O70	O	-0.012348	-0.016630	0.259907
	O71	O	0.008962	0.022609	0.263055
	C72	C	0.000534	0.016646	0.223561
	C73	C	-0.002284	-0.000126	0.270399
	C74	C	-0.009872	0.012772	0.219793
	C75	C	-0.009487	0.015157	0.213035
	H76	H	-0.018278	0.008065	0.222135
	C77	C	0.001278	0.021363	0.209956
	H78	H	-0.017662	0.012400	0.210146
	C79	C	0.011540	0.025400	0.213766
	C80	C	0.011239	0.023030	0.220524
	H81	H	0.019764	0.030396	0.211363
	H82	H	0.019324	0.026072	0.223390
	C83	C	-0.013105	-0.006330	0.273421
	C84	C	-0.013563	-0.008516	0.280195
	H85	H	-0.021159	-0.009352	0.270530
	C86	C	-0.003338	-0.004480	0.284030
	H87	H	-0.021886	-0.013352	0.282586
	C88	C	0.007558	0.001505	0.280964
	C89	C	0.008096	0.003713	0.274193
	H90	H	0.015705	0.004252	0.283875
	H91	H	0.016588	0.008276	0.271862
	C92	C	0.001942	0.023990	0.202659
	O93	O	0.005586	0.034442	0.200317
	N94	N	-0.001632	0.013318	0.198893
	H95	H	-0.003377	0.004509	0.201167
	C96	C	-0.004185	-0.006842	0.291351
	O97	O	-0.007450	-0.017397	0.293696
	N98	N	-0.001182	0.004214	0.294984
	H99	H	0.001507	0.012666	0.292551
	C100	C	0.145532	0.022081	0.088599
	C101	C	0.158268	0.021161	0.085017
	C102	C	0.161787	0.025296	0.078665
	H103	H	0.155127	0.029986	0.075441
	C104	C	0.174486	0.022937	0.076753
	C105	C	0.181364	0.026005	0.070335
	C106	C	0.183064	0.016879	0.080896
	C107	C	0.195771	0.015884	0.077282
	C108	C	0.179544	0.012757	0.087252
	H109	H	0.186205	0.008066	0.090476
	C110	C	0.166836	0.015096	0.089163
	C111	C	0.159896	0.011929	0.095560
	N112	N	0.194103	0.021551	0.070976
	N113	N	0.147153	0.016377	0.094896
	O114	O	0.205533	0.011260	0.079246
	O115	O	0.177075	0.031113	0.065527
	O116	O	0.164117	0.006712	0.100354
	O117	O	0.135751	0.026632	0.086609
	C118	C	0.203972	0.022606	0.065876
	C119	C	0.137102	0.015117	0.099893
	C120	C	0.212889	0.012677	0.065074
	C121	C	0.222363	0.013688	0.060078
	H122	H	0.212450	0.004228	0.068333
	C123	C	0.223011	0.024548	0.055811
	H124	H	0.229472	0.006165	0.059574
	C125	C	0.214199	0.034517	0.056707
	C126	C	0.204700	0.033579	0.061689
	H127	H	0.214915	0.043029	0.053465
	H128	H	0.198022	0.041424	0.062352
	C129	C	0.136205	0.004015	0.103989
	C130	C	0.126293	0.002774	0.108749
	H131	H	0.143107	-0.003662	0.103443
	C132	C	0.117144	0.012488	0.109454
	H133	H	0.125510	-0.005778	0.111961
	C134	C	0.118252	0.023694	0.105434
	C135	C	0.128142	0.025015	0.100668
	H136	H	0.111472	0.031473	0.106112
	H137	H	0.128965	0.033743	0.097611
	C138	C	0.233033	0.025804	0.050317
	O139	O	0.239120	0.035871	0.049183
	N140	N	0.234358	0.014575	0.046591
	H141	H	0.228132	0.006897	0.047487
	C142	C	0.106395	0.010760	0.114552
	O143	O	0.108270	0.006906	0.120090
	N144	N	0.094195	0.013612	0.112269
	H145	H	0.093243	0.015590	0.107402
	C146	C	0.796961	-0.006480	0.079391
	C147	C	0.810581	-0.005599	0.081581
	C148	C	0.815725	-0.010022	0.087412
	H149	H	0.809899	-0.014920	0.091250
	C150	C	0.828902	-0.007693	0.087950
	C151	C	0.837461	-0.011108	0.093471
	C152	C	0.836396	-0.001378	0.083009
	C153	C	0.850029	-0.000558	0.085172
	C154	C	0.831252	0.003054	0.077180
	H155	H	0.837074	0.007938	0.073336
	C156	C	0.818078	0.000726	0.076645
	C157	C	0.809545	0.004110	0.071111
	N158	N	0.850026	-0.006611	0.091481
	N159	N	0.796997	-0.000470	0.073071
	O160	O	0.859262	0.004200	0.082215
	O161	O	0.834459	-0.016491	0.098613
	O162	O	0.812575	0.009553	0.065987
	O163	O	0.787724	-0.011236	0.082344
	C164	C	0.861319	-0.008189	0.095302
	C165	C	0.785808	0.000789	0.069142
	C166	C	0.871004	0.001542	0.095173
	C167	C	0.881993	-0.000070	0.098841
	H168	H	0.870000	0.010286	0.092204
	C169	C	0.883417	-0.011333	0.102709
	H170	H	0.889654	0.007291	0.098573
	C171	C	0.873751	-0.021053	0.102772
	C172	C	0.862735	-0.019516	0.099119
	H173	H	0.875015	-0.029865	0.105686
	H174	H	0.855412	-0.027188	0.099164
	C175	C	0.784314	0.012002	0.065250
	C176	C	0.773486	0.013163	0.061423
	H177	H	0.791452	0.019842	0.065260
	C178	C	0.764083	0.003184	0.061383
	H179	H	0.772188	0.021857	0.058430
	C180	C	0.765557	-0.007918	0.065360
	C181	C	0.776357	-0.009163	0.069205
	H182	H	0.758126	-0.015516	0.065485
	H183	H	0.777416	-0.017840	0.072215
	C184	C	0.895251	-0.013318	0.106670
	O185	O	0.900606	-0.023704	0.106909
	N186	N	0.898930	-0.002532	0.110331
	H187	H	0.893136	0.005337	0.110477
	C188	C	0.752521	0.004828	0.057202
	O189	O	0.746517	0.014879	0.057071
	N190	N	0.749390	-0.005419	0.053077
	H191	H	0.741085	-0.004456	0.050573
	C192	C	-0.008714	0.025406	0.359199
	C193	C	-0.008675	0.013079	0.356094
	C194	C	-0.008612	0.012324	0.349223
	H195	H	-0.008594	0.021199	0.346262
	C196	C	-0.008572	0.000158	0.346158
	C197	C	-0.008512	-0.000512	0.339190
	C198	C	-0.008596	-0.011326	0.350033
	H199	H	-0.008564	-0.020722	0.347698
	C200	C	-0.008661	-0.010721	0.356909
	C201	C	-0.008690	-0.022344	0.360844
	C202	C	-0.008700	0.001514	0.359900
	H203	H	-0.008751	0.002036	0.365197
	C204	C	-0.008732	-0.031932	0.364409
	C205	C	-0.008793	-0.042801	0.368839
	C206	C	-0.008479	-0.000988	0.333259
	C207	C	-0.008469	-0.001428	0.326299
	C208	C	-0.008736	0.035699	0.362022
	C209	C	-0.008754	0.047539	0.365539
	C210	C	0.002663	-0.049367	0.370139
	C211	C	0.002609	-0.059818	0.374569
	H212	H	0.011567	-0.046119	0.367649
	C213	C	-0.008838	-0.064146	0.377879
	H214	H	0.011503	-0.064742	0.375535
	C215	C	-0.020273	-0.057628	0.376534
	C216	C	-0.020288	-0.047175	0.372110
	H217	H	-0.029178	-0.060883	0.379040
	H218	H	-0.029188	-0.042257	0.371160
	C219	C	0.002616	0.052476	0.368275
	C220	C	0.002529	0.063946	0.371785
	H221	H	0.011480	0.047203	0.367629
	C222	C	-0.008859	0.070960	0.372714
	H223	H	0.011340	0.067639	0.373882
	C224	C	-0.020187	0.066039	0.369948
	C225	C	-0.020168	0.054571	0.366433
	H226	H	-0.029045	0.071323	0.370608
	H227	H	-0.028979	0.050891	0.364351
	C228	C	-0.016968	-0.009921	0.323094
	C229	C	-0.016962	-0.010278	0.316294
	H230	H	-0.023542	-0.016207	0.326003
	C231	C	-0.008519	-0.002204	0.312411
	H232	H	-0.023525	-0.016879	0.313884
	C233	C	-0.000019	0.006232	0.315628
	C234	C	0.000032	0.006639	0.322426
	H235	H	0.006575	0.012475	0.312702
	H236	H	0.006649	0.013199	0.324815
	N237	N	-0.019129	-0.078919	0.385789
	C238	C	-0.008779	-0.075061	0.382664
	H239	H	0.000523	-0.079600	0.383514
	N240	N	0.001263	0.087524	0.379095
	C241	C	-0.008990	0.083028	0.376506
	H242	H	-0.018232	0.087973	0.377034
	N243	N	-0.001153	0.004777	0.301607
	C244	C	-0.008678	-0.002639	0.305203
	H245	H	-0.015808	-0.009367	0.303165
	C246	C	0.327415	-0.000237	-0.000655
	C247	C	0.313712	-0.000382	-0.000847
	C248	C	0.307556	-0.001201	-0.006871
	H249	H	0.313279	-0.001739	-0.011381
	C250	C	0.294043	-0.001331	-0.007092
	C251	C	0.287784	-0.002139	-0.013191
	C252	C	0.286689	-0.000639	-0.001215
	H253	H	0.276272	-0.000727	-0.001357
	C254	C	0.292701	0.000176	0.004845
	C255	C	0.285106	0.000862	0.010758
	C256	C	0.306222	0.000302	0.004991
	H257	H	0.310917	0.000938	0.009643
	C258	C	0.278300	0.001425	0.015672
	C259	C	0.269916	0.002050	0.021294
	C260	C	0.281999	-0.002777	-0.018246
	C261	C	0.274672	-0.003450	-0.024006
	C262	C	0.339068	-0.000083	-0.000458
	C263	C	0.352733	0.000123	-0.000188
	C264	C	0.269101	0.013545	0.024952
	C265	C	0.260751	0.014149	0.030382
	H266	H	0.275049	0.021979	0.023475
	C267	C	0.252887	0.003355	0.032387
	H268	H	0.260177	0.023065	0.033152
	C269	C	0.253769	-0.008133	0.028743
	C270	C	0.262099	-0.008803	0.023310
	H271	H	0.247796	-0.016550	0.030222
	H272	H	0.262642	-0.017710	0.020547
	C273	C	0.359299	-0.010816	0.002160
	C274	C	0.372647	-0.010570	0.002431
	H275	H	0.353806	-0.019463	0.003771
	C276	C	0.379994	0.000547	0.000374
	H277	H	0.377588	-0.019033	0.004264
	C278	C	0.373404	0.011456	-0.001962
	C279	C	0.360059	0.011283	-0.002245
	H280	H	0.378932	0.020121	-0.003533
	H281	H	0.355149	0.019784	-0.004046
	C282	C	0.273023	0.007732	-0.027992
	C283	C	0.265633	0.007104	-0.033539
	H284	H	0.277565	0.016883	-0.026656
	C285	C	0.259592	-0.004666	-0.035339
	H286	H	0.264415	0.015796	-0.036543
	C287	C	0.261343	-0.015833	-0.031377
	C288	C	0.268722	-0.015274	-0.025826
	H289	H	0.256771	-0.024984	-0.032719
	H290	H	0.269914	-0.023973	-0.022827
	N291	N	0.242958	0.014437	0.041443
	C292	C	0.243896	0.004023	0.038082
	H293	H	0.238011	-0.004773	0.039318
	N294	N	0.400296	-0.008999	0.002733
	C295	C	0.394149	0.000884	0.000649
	H296	H	0.399037	0.009876	-0.001207
	N297	N	0.245779	-0.015804	-0.042748
	C298	C	0.251549	-0.005188	-0.041145
	H299	H	0.250532	0.003942	-0.043969
	C300	C	0.688602	-0.007253	0.004935
	C301	C	0.702231	-0.007871	0.005410
	C302	C	0.710291	-0.006250	-0.000222
	H303	H	0.706096	-0.004520	-0.004944
	C304	C	0.723744	-0.006850	0.000217
	C305	C	0.731887	-0.005194	-0.005500
	C306	C	0.729116	-0.009097	0.006363
	H307	H	0.739477	-0.009559	0.006729
	C308	C	0.721182	-0.010738	0.012038
	C309	C	0.726727	-0.013010	0.018244
	C310	C	0.707747	-0.010111	0.011523
	H311	H	0.701579	-0.011363	0.015877
	C312	C	0.731581	-0.014925	0.023490
	C313	C	0.737444	-0.017145	0.029603
	C314	C	0.738993	-0.003779	-0.010296
	C315	C	0.747552	-0.002115	-0.015838
	C316	C	0.676998	-0.006758	0.004569
	C317	C	0.663375	-0.006215	0.004186
	C318	C	0.743493	-0.006836	0.032896
	C319	C	0.749242	-0.009032	0.038859
	H320	H	0.743724	0.002866	0.030683
	C321	C	0.749088	-0.021544	0.041834
	H322	H	0.754339	-0.001050	0.041140
	C323	C	0.743314	-0.031865	0.038442
	C324	C	0.737523	-0.029740	0.032485
	H325	H	0.743277	-0.041610	0.040608
	H326	H	0.733024	-0.037797	0.029981
	C327	C	0.655843	-0.017664	0.003429
	C328	C	0.642536	-0.017099	0.003079
	H329	H	0.660540	-0.026975	0.003123
	C330	C	0.636192	-0.005138	0.003468
	H331	H	0.636832	-0.025982	0.002498
	C332	C	0.643742	0.006283	0.004212
	C333	C	0.657056	0.005787	0.004566
	H334	H	0.639019	0.015585	0.004514
	H335	H	0.662730	0.014669	0.005143
	C336	C	0.752319	-0.012997	-0.019183
	C337	C	0.760780	-0.011349	-0.024555
	H338	H	0.749308	-0.022713	-0.017500
	C339	C	0.764830	0.001184	-0.026811
	H340	H	0.764378	-0.019811	-0.027071
	C341	C	0.760010	0.012025	-0.023477
	C342	C	0.751550	0.010447	-0.018102
	H343	H	0.763035	0.021748	-0.025172
	H344	H	0.747968	0.018922	-0.015595
	N345	N	0.755948	-0.016632	0.052984
	C346	C	0.755265	-0.024285	0.048096
	H347	H	0.759693	-0.033921	0.048590
	N348	N	0.615117	-0.014909	0.002479
	C349	C	0.622084	-0.004541	0.003119
	H350	H	0.617796	0.005130	0.003475
	N351	N	0.777758	0.014216	-0.034524
	C352	C	0.773906	0.002842	-0.032464
	H353	H	0.777331	-0.006073	-0.034790
	C354	C	0.000744	0.201253	0.414776
	C355	C	0.000819	0.187520	0.412400
	C356	C	0.004311	0.182937	0.406234
	H357	H	0.007564	0.189386	0.402223
	C358	C	0.003325	0.169463	0.405600
	C359	C	0.006283	0.161335	0.399743
	C360	C	-0.000870	0.161167	0.410766
	C361	C	-0.000709	0.147426	0.408415
	C362	C	-0.004375	0.165749	0.416930
	H363	H	-0.007610	0.159305	0.420946
	C364	C	-0.003389	0.179220	0.417562
	C365	C	-0.006294	0.187324	0.423431
	N366	N	0.003718	0.148195	0.401768
	N367	N	-0.003615	0.200452	0.421433
	O368	O	-0.003672	0.137589	0.411479
	O369	O	0.010003	0.165022	0.394353
	O370	O	-0.010077	0.183604	0.428806
	O371	O	0.003708	0.211095	0.411717
	C372	C	0.005596	0.137093	0.397666
	C373	C	-0.005074	0.211480	0.425628
	C374	C	-0.002830	0.126256	0.398265
	C375	C	-0.000906	0.115453	0.394324
	H376	H	-0.010796	0.126224	0.401808
	C377	C	0.009359	0.115360	0.389715
	H378	H	-0.007199	0.106916	0.394946
	C379	C	0.017790	0.126178	0.389181
	C380	C	0.015935	0.137015	0.393104
	H381	H	0.025867	0.125951	0.385685
	H382	H	0.022628	0.145244	0.392682
	C383	C	-0.015279	0.211690	0.430265
	C384	C	-0.016622	0.222368	0.434348
	H385	H	-0.022218	0.203670	0.430641
	C386	C	-0.007812	0.232892	0.433903
	H387	H	-0.024554	0.222675	0.437921
	C388	C	0.002261	0.232690	0.429190
	C389	C	0.003678	0.222051	0.425084
	H390	H	0.008903	0.240978	0.428703
	H391	H	0.011564	0.221984	0.421500
	C392	C	0.011688	0.103751	0.385447
	O393	O	0.022379	0.099509	0.384478
	N394	N	0.000631	0.098609	0.382612
	H395	H	-0.007741	0.103536	0.383042
	C396	C	-0.009611	0.244255	0.438379
	O397	O	-0.020039	0.249192	0.439309
	N398	N	0.001097	0.248452	0.441819
	H399	H	-0.000081	0.256684	0.444499
	C400	C	-0.009382	0.865587	0.416614
	C401	C	-0.011943	0.856143	0.422214
	C402	C	-0.003224	0.849885	0.426174
	H403	H	0.007108	0.851283	0.425510
	C404	C	-0.008756	0.841750	0.431073
	C405	C	-0.002328	0.833760	0.436188
	C406	C	-0.022059	0.839972	0.431940
	C407	C	-0.024638	0.830826	0.437660
	C408	C	-0.030778	0.846193	0.427965
	H409	H	-0.041114	0.844849	0.428652
	C410	C	-0.025248	0.854343	0.423073
	C411	C	-0.031692	0.862567	0.418056
	N412	N	-0.012397	0.827558	0.440029
	N413	N	-0.021631	0.869153	0.414374
	O414	O	-0.034945	0.826957	0.439885
	O415	O	0.009064	0.832640	0.436942
	O416	O	-0.043081	0.863564	0.417257
	O417	O	0.000914	0.869459	0.414372
	C418	C	-0.010477	0.819476	0.445740
	C419	C	-0.023595	0.878533	0.409192
	C420	C	-0.018749	0.808778	0.447203
	C421	C	-0.016972	0.801110	0.452810
	H422	H	-0.026576	0.806504	0.444009
	C423	C	-0.006887	0.803944	0.456990
	H424	H	-0.023651	0.793103	0.454043
	C425	C	0.001292	0.814685	0.455513
	C426	C	-0.000426	0.822404	0.449922
	H427	H	0.008953	0.816976	0.458831
	H428	H	0.005887	0.830776	0.448903
	C429	C	-0.033686	0.876761	0.404887
	C430	C	-0.035563	0.885967	0.399906
	H431	H	-0.040014	0.868257	0.405397
	C432	C	-0.027389	0.896946	0.399122
	H433	H	-0.043409	0.884740	0.396566
	C434	C	-0.017414	0.898742	0.403499
	C435	C	-0.015476	0.889589	0.408493
	H436	H	-0.011317	0.907452	0.403073
	H437	H	-0.007815	0.891128	0.411887
	C438	C	-0.004858	0.795948	0.463130
	O439	O	-0.002053	0.800947	0.468254
	N440	N	-0.005638	0.782439	0.462311
	H441	H	-0.006572	0.778876	0.457725
	C442	C	-0.029696	0.906781	0.393726
	O443	O	-0.040429	0.910279	0.392445
	N444	N	-0.018540	0.911190	0.390275
	H445	H	-0.010082	0.906688	0.391077
	C446	C	0.481148	-0.017295	0.000935
	C447	C	0.495395	-0.015169	0.001417
	C448	C	0.505287	-0.023810	0.000189
	H449	H	0.503502	-0.033712	-0.001371
	C450	C	0.517646	-0.018806	0.001126
	C451	C	0.530322	-0.025347	0.000290
	C452	C	0.519954	-0.006070	0.003152
	C453	C	0.534200	-0.003981	0.003674
	C454	C	0.510060	0.002573	0.004376
	H455	H	0.511844	0.012471	0.005942
	C456	C	0.497700	-0.002432	0.003442
	C457	C	0.485011	0.004076	0.004314
	N458	N	0.539864	-0.015930	0.001911
	N459	N	0.475470	-0.005378	0.002739
	O460	O	0.539896	0.005802	0.005229
	O461	O	0.532214	-0.036368	-0.001385
	O462	O	0.483107	0.015100	0.005981
	O463	O	0.475465	-0.027085	-0.000621
	C464	C	0.553483	-0.018216	0.001829
	C465	C	0.461822	-0.003242	0.002995
	C466	C	0.561208	-0.012648	0.006586
	C467	C	0.574421	-0.014838	0.006496
	H468	H	0.556900	-0.006780	0.010382
	C469	C	0.580090	-0.022528	0.001651
	H470	H	0.580333	-0.010758	0.010269
	C471	C	0.572281	-0.028224	-0.003021
	C472	C	0.559063	-0.026067	-0.002970
	H473	H	0.576700	-0.034349	-0.006698
	H474	H	0.553176	-0.030421	-0.006663
	C475	C	0.456387	0.004495	0.007884
	C476	C	0.443126	0.006414	0.008141
	H477	H	0.462416	0.008915	0.011498
	C478	C	0.435131	0.000603	0.003584
	H479	H	0.438822	0.012418	0.011905
	C480	C	0.440656	-0.006944	-0.001361
	C481	C	0.453911	-0.008897	-0.001658
	H482	H	0.434591	-0.011142	-0.005040
	H483	H	0.458094	-0.014684	-0.005521
	C484	C	0.594344	-0.025013	0.001451
	O485	O	0.598576	-0.035783	0.000538
	N486	N	0.602134	-0.013876	0.002222
	H487	H	0.597979	-0.004981	0.002285
	C488	C	0.420811	0.002756	0.004040
	O489	O	0.416497	0.013328	0.005332
	N490	N	0.413303	-0.008512	0.003064
	H491	H	0.417618	-0.017343	0.003294
	C492	C	0.198242	-0.023532	0.922817
	C493	C	0.186030	-0.020916	0.919350
	C494	C	0.183379	-0.022160	0.912742
	H495	H	0.190477	-0.025405	0.909164
	C496	C	0.170940	-0.018929	0.911068
	C497	C	0.164874	-0.019151	0.904501
	C498	C	0.161813	-0.014727	0.915676
	C499	C	0.149585	-0.012114	0.912239
	C500	C	0.164454	-0.013492	0.922281
	H501	H	0.157351	-0.010266	0.925862
	C502	C	0.176885	-0.016732	0.923953
	C503	C	0.182873	-0.016563	0.930529
	N504	N	0.152066	-0.014929	0.905547
	N505	N	0.195687	-0.020766	0.929516
	O506	O	0.139551	-0.008422	0.914597
	O507	O	0.169734	-0.022197	0.899328
	O508	O	0.177943	-0.013527	0.935689
	O509	O	0.208316	-0.027143	0.920475
	C510	C	0.142727	-0.013759	0.900522
	C511	C	0.204782	-0.022257	0.934639
	C512	C	0.134009	-0.003544	0.900677
	C513	C	0.124788	-0.002530	0.895879
	H514	H	0.134496	0.003627	0.904488
	C515	C	0.124105	-0.011704	0.890900
	H516	H	0.118200	0.005520	0.895938
	C517	C	0.133030	-0.021708	0.890689
	C518	C	0.142280	-0.022795	0.895474
	H519	H	0.132600	-0.028645	0.886749
	H520	H	0.149012	-0.030686	0.895303
	C521	C	0.204885	-0.013546	0.939841
	C522	C	0.213604	-0.015090	0.944846
	H523	H	0.198202	-0.005610	0.939984
	C524	C	0.222388	-0.025245	0.944701
	H525	H	0.213423	-0.008539	0.948954
	C526	C	0.222152	-0.033976	0.939522
	C527	C	0.213455	-0.032503	0.934498
	H528	H	0.228859	-0.041938	0.939484
	H529	H	0.213348	-0.039383	0.930545
	C530	C	0.114036	-0.010885	0.885745
	O531	O	0.116848	-0.011655	0.879958
	N532	N	0.101516	-0.009496	0.888350
	H533	H	0.100172	-0.009077	0.893315
	C534	C	0.231779	-0.027141	0.950106
	O535	O	0.234027	-0.037853	0.952363
	N536	N	0.238180	-0.015705	0.951958
	H537	H	0.237057	-0.007361	0.949278
	C538	C	0.827443	0.027939	0.930618
	C539	C	0.840364	0.027659	0.927157
	C540	C	0.843411	0.028540	0.920470
	H541	H	0.836137	0.029602	0.916816
	C542	C	0.856489	0.027967	0.918821
	C543	C	0.863093	0.028627	0.912187
	C544	C	0.865850	0.026596	0.923527
	C545	C	0.878782	0.026350	0.920086
	C546	C	0.862809	0.025725	0.930213
	H547	H	0.870086	0.024704	0.933867
	C548	C	0.849734	0.026295	0.931859
	C549	C	0.843170	0.025690	0.938498
	N550	N	0.876461	0.027648	0.913293
	N551	N	0.829807	0.026766	0.937413
	O552	O	0.889154	0.025285	0.922510
	O553	O	0.858215	0.029658	0.906924
	O554	O	0.848081	0.024539	0.943748
	O555	O	0.817042	0.028855	0.928208
	C556	C	0.886386	0.028140	0.908211
	C557	C	0.819984	0.026872	0.942540
	C558	C	0.897306	0.020485	0.908766
	C559	C	0.906975	0.021074	0.903861
	H560	H	0.898285	0.014166	0.913017
	C561	C	0.905836	0.029214	0.898335
	H562	H	0.915603	0.015448	0.904397
	C563	C	0.894948	0.036903	0.897838
	C564	C	0.885234	0.036366	0.902721
	H565	H	0.894234	0.043368	0.893601
	H566	H	0.876934	0.042477	0.902301
	C567	C	0.821123	0.019092	0.948195
	C568	C	0.811628	0.019277	0.953180
	H569	H	0.829362	0.012928	0.948701
	C570	C	0.800859	0.027124	0.952568
	H571	H	0.812692	0.013495	0.957622
	C572	C	0.799858	0.034976	0.946939
	C573	C	0.809311	0.034847	0.941932
	H574	H	0.791582	0.041180	0.946536
	H575	H	0.808427	0.041024	0.937622
	C576	C	0.916238	0.030062	0.893017
	O577	O	0.919946	0.040401	0.890567
	N578	N	0.920540	0.017972	0.890897
	H579	H	0.915910	0.009695	0.892624
	C580	C	0.790534	0.027505	0.957914
	O581	O	0.785863	0.037645	0.959679
	N582	N	0.786294	0.015224	0.960307
	H583	H	0.789564	0.007109	0.958058
	C584	C	0.011996	0.311791	0.489512
	C585	C	0.012348	0.297974	0.488960
	C586	C	0.011545	0.289901	0.494608
	H587	H	0.010662	0.294233	0.499396
	C588	C	0.011877	0.276261	0.494102
	C589	C	0.011057	0.268135	0.499847
	C590	C	0.013029	0.270712	0.487870
	H591	H	0.013282	0.260208	0.487452
	C592	C	0.013848	0.278658	0.482178
	C593	C	0.015027	0.272951	0.475881
	C594	C	0.013500	0.292282	0.482762
	H595	H	0.014122	0.298458	0.478395
	C596	C	0.016048	0.268036	0.470540
	C597	C	0.017272	0.262191	0.464295
	C598	C	0.010359	0.261194	0.504723
	C599	C	0.009550	0.253005	0.510428
	C600	C	0.011692	0.323544	0.489985
	C601	C	0.011326	0.337331	0.490542
	C602	C	0.006961	0.254951	0.461725
	C603	C	0.008186	0.249251	0.455623
	H604	H	-0.001955	0.253768	0.464603
	C605	C	0.019666	0.250639	0.451788
	H606	H	0.000312	0.243241	0.453892
	C607	C	0.030045	0.257598	0.454455
	C608	C	0.028883	0.263346	0.460546
	H609	H	0.039033	0.258596	0.451616
	H610	H	0.036948	0.268771	0.462483
	C611	C	0.022673	0.344758	0.491505
	C612	C	0.022271	0.358223	0.492044
	H613	H	0.031775	0.339853	0.491826
	C614	C	0.010580	0.364833	0.491647
	H615	H	0.031071	0.363843	0.492789
	C616	C	-0.000738	0.357388	0.490688
	C617	C	-0.000404	0.343919	0.490145
	H618	H	-0.009832	0.362317	0.490375
	H619	H	-0.009205	0.338328	0.489409
	C620	C	0.019562	0.244459	0.511886
	C621	C	0.018742	0.236442	0.517452
	H622	H	0.027951	0.244212	0.508599
	C623	C	0.007935	0.236613	0.521787
	H624	H	0.026518	0.229921	0.518508
	C625	C	-0.002033	0.245169	0.520321
	C626	C	-0.001276	0.253207	0.514763
	H627	H	-0.010417	0.245410	0.523626
	H628	H	-0.009061	0.259722	0.513720
	N629	N	0.012750	0.243021	0.441047
	C630	C	0.021390	0.244579	0.445343
	H631	H	0.031138	0.241105	0.444122
	N632	N	0.020404	0.385995	0.493064
	C633	C	0.010142	0.379103	0.492215
	H634	H	0.000672	0.383584	0.491844
	N635	N	-0.002683	0.228085	0.531643
	C636	C	0.007131	0.228053	0.527662
	H637	H	0.015257	0.221590	0.528464
	C638	C	0.000808	0.675946	0.504044
	C639	C	0.000135	0.689764	0.504483
	C640	C	-0.000145	0.695729	0.510634
	H641	H	0.000192	0.689773	0.515061
	C642	C	-0.000878	0.709351	0.511086
	C643	C	-0.001221	0.715439	0.517306
	C644	C	-0.001325	0.717005	0.505315
	H645	H	-0.001919	0.727505	0.505637
	C646	C	-0.001044	0.711188	0.499133
	C647	C	-0.001542	0.719094	0.493334
	C648	C	-0.000314	0.697556	0.498755
	H649	H	-0.000116	0.693004	0.494008
	C650	C	-0.002070	0.726220	0.488550
	C651	C	-0.002818	0.735027	0.483118
	C652	C	-0.001661	0.721199	0.522438
	C653	C	-0.002352	0.728628	0.528247
	C654	C	0.001246	0.664198	0.503585
	C655	C	0.001600	0.650426	0.502950
	C656	C	-0.001951	0.748610	0.484020
	C657	C	-0.002758	0.757238	0.478733
	H658	H	-0.000658	0.752300	0.488904
	C659	C	-0.004457	0.752711	0.472340
	H660	H	-0.002088	0.767679	0.479492
	C661	C	-0.005287	0.739141	0.471449
	C662	C	-0.004490	0.730452	0.476719
	H663	H	-0.006588	0.735483	0.466557
	H664	H	-0.005167	0.720031	0.475954
	C665	C	0.012826	0.644371	0.500580
	C666	C	0.013096	0.630923	0.499924
	H667	H	0.021285	0.650340	0.499254
	C668	C	0.002228	0.622966	0.501603
	H669	H	0.021773	0.626377	0.498075
	C670	C	-0.008961	0.629046	0.503973
	C671	C	-0.009303	0.642487	0.504640
	H672	H	-0.017434	0.623049	0.505258
	H673	H	-0.018015	0.646999	0.506458
	C674	C	0.004413	0.740660	0.528596
	C675	C	0.003557	0.748078	0.534209
	H676	H	0.010279	0.744100	0.524401
	C677	C	-0.004054	0.743821	0.539700
	H678	H	0.008778	0.757334	0.534390
	C679	C	-0.010716	0.731758	0.539356
	C680	C	-0.009907	0.724292	0.533754
	H681	H	-0.016605	0.728354	0.543561
	H682	H	-0.015161	0.715059	0.533575
	N683	N	-0.004697	0.774268	0.467572
	C684	C	-0.005381	0.761897	0.466753
	H685	H	-0.006664	0.757718	0.461892
	N686	N	0.012524	0.602996	0.498757
	C687	C	0.002409	0.608708	0.500894
	H688	H	-0.006447	0.603327	0.502466
	N689	N	-0.011994	0.748218	0.550623
	C690	C	-0.005073	0.751893	0.545571
	H691	H	0.000308	0.761254	0.545424
	C692	C	0.009147	-0.001458	0.841714
	C693	C	0.009625	-0.001938	0.848684
	C694	C	-0.001698	-0.000718	0.852560
	H695	H	-0.010813	0.000590	0.850223
	C696	C	-0.001298	-0.001169	0.859438
	C697	C	-0.012767	0.000084	0.863368
	C698	C	0.010574	-0.002854	0.862431
	H699	H	0.010938	-0.003202	0.867729
	C700	C	0.021977	-0.004082	0.858624
	C701	C	0.033939	-0.005747	0.861734
	C702	C	0.021428	-0.003618	0.851750
	H703	H	0.030179	-0.004557	0.848789
	C704	C	0.043907	-0.007063	0.864583
	C705	C	0.055332	-0.008489	0.868166
	C706	C	-0.022292	0.001162	0.866881
	C707	C	-0.033182	0.002429	0.871199
	C708	C	0.008736	-0.001033	0.835785
	C709	C	0.008258	-0.000517	0.828829
	C710	C	0.065787	-0.015568	0.865633
	C711	C	0.076871	-0.016975	0.869195
	H712	H	0.065092	-0.019932	0.860856
	C713	C	0.077991	-0.011416	0.875414
	H714	H	0.084864	-0.022425	0.867192
	C715	C	0.067550	-0.004314	0.877913
	C716	C	0.056446	-0.002861	0.874380
	H717	H	0.068286	0.000069	0.882687
	H718	H	0.048508	0.002640	0.876389
	C719	C	-0.000239	-0.008782	0.825488
	C720	C	-0.000671	-0.008245	0.818693
	H721	H	-0.006470	-0.015609	0.828277
	C722	C	0.007322	0.000523	0.814954
	H723	H	-0.007249	-0.014663	0.816172
	C724	C	0.015801	0.008763	0.818304
	C725	C	0.016280	0.008279	0.825099
	H726	H	0.022032	0.015576	0.815502
	H727	H	0.022857	0.014695	0.827604
	C728	C	-0.040130	-0.008683	0.873649
	C729	C	-0.050641	-0.007429	0.877948
	H730	H	-0.037143	-0.018264	0.872144
	C731	C	-0.054650	0.004921	0.879981
	H732	H	-0.055871	-0.016066	0.879802
	C733	C	-0.047739	0.015996	0.877494
	C734	C	-0.037223	0.014812	0.873193
	H735	H	-0.050749	0.025584	0.879006
	H736	H	-0.032008	0.023460	0.871348
	N737	N	0.090714	-0.008194	0.884886
	C738	C	0.089747	-0.013056	0.879174
	H739	H	0.097280	-0.018917	0.876870
	N740	N	-0.000861	-0.006315	0.804647
	C741	C	0.006883	0.001094	0.807752
	H742	H	0.013421	0.008170	0.805164
	N743	N	-0.069352	0.017360	0.886542
	C744	C	-0.065680	0.006155	0.884614
	H745	H	-0.070585	-0.002920	0.886361
	C746	C	0.022223	0.521210	0.497996
	C747	C	0.020323	0.506851	0.497066
	C748	C	0.028853	0.496803	0.498116
	H749	H	0.038483	0.498527	0.499856
	C750	C	0.024113	0.484375	0.496756
	C751	C	0.030616	0.471530	0.497314
	C752	C	0.011726	0.482150	0.494502
	C753	C	0.009830	0.467800	0.493551
	C754	C	0.003194	0.492196	0.493453
	H755	H	-0.006433	0.490474	0.491709
	C756	C	0.007937	0.504624	0.494809
	C757	C	0.001445	0.517467	0.494225
	N758	N	0.021533	0.461986	0.495304
	N759	N	0.010542	0.527022	0.496206
	O760	O	0.000348	0.462138	0.491707
	O761	O	0.041383	0.469529	0.499067
	O762	O	-0.009320	0.519461	0.492467
	O763	O	0.031695	0.526880	0.499847
	C764	C	0.023853	0.448222	0.495065
	C765	C	0.008266	0.540802	0.496345
	C766	C	0.018722	0.440771	0.490048
	C767	C	0.020881	0.427405	0.489845
	H768	H	0.013205	0.445409	0.486285
	C769	C	0.028113	0.421308	0.494648
	H770	H	0.017129	0.421704	0.485881
	C771	C	0.033401	0.428853	0.499575
	C772	C	0.031269	0.442223	0.499819
	H773	H	0.039178	0.424105	0.503219
	H774	H	0.035292	0.447895	0.503708
	C775	C	0.000938	0.546686	0.491520
	C776	C	-0.001169	0.560067	0.491660
	H777	H	-0.003030	0.540913	0.487652
	C778	C	0.004050	0.567747	0.496556
	H779	H	-0.006869	0.564712	0.487950
	C780	C	0.011206	0.561766	0.501427
	C781	C	0.013345	0.548386	0.501325
	H782	H	0.014943	0.567559	0.505361
	H783	H	0.018821	0.543843	0.505134
	C784	C	0.030492	0.406867	0.494546
	O785	O	0.041052	0.402452	0.495428
	N786	N	0.019491	0.399132	0.493539
	H787	H	0.010752	0.403429	0.493494
	C788	C	0.001646	0.582203	0.496532
	O789	O	-0.008735	0.586502	0.495156
	N790	N	0.012449	0.589893	0.498002
	H791	H	0.021294	0.585762	0.497805
	C792	C	-0.006366	0.184463	0.568708
	C793	C	-0.007659	0.171906	0.572565
	C794	C	-0.004335	0.169221	0.578999
	H795	H	-0.000169	0.176559	0.582101
	C796	C	-0.006725	0.156410	0.581152
	C797	C	-0.004284	0.150205	0.587687
	C798	C	-0.012064	0.146958	0.577153
	C799	C	-0.013269	0.134372	0.580982
	C800	C	-0.015403	0.149644	0.570723
	H801	H	-0.019567	0.142307	0.567620
	C802	C	-0.012995	0.162448	0.568569
	C803	C	-0.015339	0.168601	0.562015
	N804	N	-0.008373	0.136960	0.587250
	N805	N	-0.011158	0.181818	0.562420
	O806	O	-0.017548	0.124048	0.579198
	O807	O	0.000285	0.155251	0.592398
	O808	O	-0.019858	0.163520	0.557299
	O809	O	-0.002060	0.194784	0.570475
	C810	C	-0.007565	0.127361	0.592446
	C811	C	-0.011749	0.191300	0.557158
	C812	C	-0.004579	0.114474	0.590971
	C813	C	-0.003869	0.105136	0.595997
	H814	H	-0.002680	0.111784	0.585938
	C815	C	-0.006182	0.108507	0.602537
	H816	H	-0.001304	0.095225	0.594859
	C817	C	-0.008931	0.121443	0.603986
	C818	C	-0.009681	0.130838	0.598984
	H819	H	-0.010496	0.124042	0.609073
	H820	H	-0.011973	0.140773	0.600172
	C821	C	-0.009457	0.187594	0.550664
	C822	C	-0.010031	0.196807	0.545569
	H823	H	-0.007213	0.177592	0.549595
	C824	C	-0.012806	0.209810	0.546888
	H825	H	-0.008545	0.193861	0.540533
	C826	C	-0.015257	0.213401	0.553377
	C827	C	-0.014695	0.204248	0.558500
	H828	H	-0.017589	0.223454	0.554357
	H829	H	-0.016655	0.207165	0.563492
	C830	C	-0.005499	0.098506	0.608025
	O831	O	0.000684	0.100598	0.612850
	N832	N	-0.012792	0.087116	0.606990
	H833	H	-0.017855	0.086445	0.602800
	C834	C	-0.013447	0.219912	0.541453
	O835	O	-0.021981	0.227785	0.541265
	N836	N	-0.002983	0.219932	0.536968
	H837	H	0.004511	0.213987	0.537849
	C838	C	-0.032188	0.801510	0.581406
	C839	C	-0.028910	0.810138	0.586980
	C840	C	-0.035427	0.820863	0.589359
	H841	H	-0.044238	0.824239	0.587259
	C842	C	-0.029764	0.826963	0.594618
	C843	C	-0.034076	0.838681	0.598284
	C844	C	-0.018403	0.822639	0.597314
	C845	C	-0.015042	0.831425	0.602821
	C846	C	-0.011907	0.811889	0.594944
	H847	H	-0.003093	0.808515	0.597043
	C848	C	-0.017550	0.805804	0.589672
	C849	C	-0.013153	0.794208	0.585924
	N850	N	-0.024829	0.840849	0.603142
	N851	N	-0.022355	0.792150	0.581029
	O852	O	-0.005928	0.830785	0.606321
	O853	O	-0.043406	0.845157	0.597332
	O854	O	-0.003748	0.787805	0.586809
	O855	O	-0.041228	0.802284	0.577864
	C856	C	-0.025281	0.851344	0.607719
	C857	C	-0.021734	0.782067	0.576227
	C858	C	-0.013881	0.857606	0.609577
	C859	C	-0.014380	0.867895	0.613950
	H860	H	-0.004684	0.854461	0.607627
	C861	C	-0.026223	0.872095	0.616490
	H862	H	-0.005535	0.872513	0.615517
	C863	C	-0.037550	0.865655	0.614696
	C864	C	-0.037133	0.855363	0.610325
	H865	H	-0.046679	0.868788	0.616784
	H866	H	-0.045971	0.850415	0.609023
	C867	C	-0.009815	0.778384	0.573548
	C868	C	-0.009280	0.768777	0.568799
	H869	H	-0.001027	0.783041	0.575129
	C870	C	-0.020594	0.762795	0.566648
	H871	H	-0.000039	0.765760	0.566815
	C872	C	-0.032439	0.766324	0.569448
	C873	C	-0.033056	0.775922	0.574196
	H874	H	-0.041156	0.761498	0.567835
	H875	H	-0.042292	0.778542	0.576317
	C876	C	-0.027024	0.883318	0.621141
	O877	O	-0.033967	0.882902	0.626036
	N878	N	-0.019812	0.894408	0.619071
	H879	H	-0.015173	0.894418	0.614603
	C880	C	-0.020291	0.752624	0.561409
	O881	O	-0.026670	0.742577	0.561888
	N882	N	-0.012776	0.756241	0.555836
	H883	H	-0.008614	0.765325	0.555577
	C884	C	-0.008078	-0.005709	0.736664
	C885	C	-0.006584	-0.003929	0.743870
	C886	C	-0.011348	-0.011698	0.749102
	H887	H	-0.017077	-0.020500	0.748417
	C888	C	-0.008212	-0.007330	0.755282
	C889	C	-0.011684	-0.013238	0.761887
	C890	C	-0.000855	0.004014	0.756169
	C891	C	0.000675	0.005770	0.763375
	C892	C	0.003905	0.011784	0.750937
	H893	H	0.009641	0.020582	0.751622
	C894	C	0.000777	0.007412	0.744757
	C895	C	0.004295	0.013291	0.738151
	N896	N	-0.006056	-0.004900	0.766531
	N897	N	-0.001294	0.004927	0.733505
	O898	O	0.006463	0.014386	0.766048
	O899	O	-0.018003	-0.023037	0.763104
	O900	O	0.010621	0.023085	0.736935
	O901	O	-0.013883	-0.014315	0.733991
	C902	C	-0.006975	-0.007001	0.773522
	C903	C	-0.000200	0.006917	0.726510
	C904	C	-0.008097	0.003636	0.777689
	C905	C	-0.008864	0.001604	0.784471
	H906	H	-0.008510	0.013420	0.775644
	C907	C	-0.008457	-0.011022	0.787174
	H908	H	-0.009999	0.009825	0.787684
	C909	C	-0.007572	-0.021613	0.782977
	C910	C	-0.006784	-0.019662	0.776191
	H911	H	-0.007476	-0.031389	0.785101
	H912	H	-0.005940	-0.027943	0.773013
	C913	C	-0.000227	0.019539	0.723785
	C914	C	0.000776	0.021377	0.716994
	H915	H	-0.001098	0.027880	0.726921
	C916	C	0.001707	0.010709	0.712850
	H917	H	0.000823	0.031121	0.714827
	C918	C	0.001936	-0.001880	0.715611
	C919	C	0.000959	-0.003798	0.722396
	H920	H	0.003106	-0.010163	0.712441
	H921	H	0.001248	-0.013557	0.724483
	C922	C	-0.009163	-0.013436	0.794487
	O923	O	-0.015809	-0.022150	0.797005
	N924	N	-0.000901	-0.005405	0.798001
	H925	H	0.005368	0.000773	0.795492
	C926	C	0.002679	0.012985	0.705531
	O927	O	0.009695	0.021408	0.703019
	N928	N	-0.005412	0.004852	0.701976
	H929	H	-0.011974	-0.001053	0.704458
	C930	C	-0.012397	-0.001933	0.658162
	C931	C	-0.012375	-0.002235	0.651184
	C932	C	-0.012345	-0.014230	0.647958
	H933	H	-0.012319	-0.023249	0.650803
	C934	C	-0.012340	-0.014631	0.641078
	C935	C	-0.012332	-0.026807	0.637827
	C936	C	-0.012356	-0.002881	0.637421
	H937	H	-0.012356	-0.003129	0.632118
	C938	C	-0.012377	0.009190	0.640574
	C939	C	-0.012374	0.021027	0.636805
	C940	C	-0.012391	0.009436	0.647459
	H941	H	-0.012415	0.018703	0.649918
	C942	C	-0.012318	0.030936	0.633472
	C943	C	-0.012181	0.042369	0.629416
	C944	C	-0.012375	-0.037057	0.634964
	C945	C	-0.012490	-0.048930	0.631476
	C946	C	-0.012430	-0.001802	0.664100
	C947	C	-0.012489	-0.001804	0.671069
	C948	C	-0.009970	0.054804	0.632050
	C949	C	-0.009795	0.065920	0.628049
	H950	H	-0.008371	0.055615	0.637252
	C951	C	-0.011813	0.065114	0.621276
	H952	H	-0.008032	0.075431	0.630127
	C953	C	-0.014020	0.052681	0.618666
	C954	C	-0.014214	0.041528	0.622636
	H955	H	-0.015569	0.051902	0.613455
	H956	H	-0.015923	0.032041	0.620535
	C957	C	-0.003970	0.006406	0.674428
	C958	C	-0.004047	0.006331	0.681236
	H959	H	0.002693	0.012812	0.671642
	C960	C	-0.012589	-0.001907	0.684970
	H961	H	0.002559	0.012694	0.683771
	C962	C	-0.021093	-0.010086	0.681601
	C963	C	-0.021070	-0.010056	0.674795
	H964	H	-0.027745	-0.016491	0.684399
	H965	H	-0.027680	-0.016414	0.672276
	C966	C	-0.005306	-0.050026	0.625542
	C967	C	-0.005510	-0.061582	0.622101
	H968	H	0.000392	-0.041700	0.623680
	C969	C	-0.012857	-0.072507	0.624429
	H970	H	0.000046	-0.062266	0.617539
	C971	C	-0.019979	-0.071396	0.630368
	C972	C	-0.019823	-0.059865	0.633831
	H973	H	-0.025684	-0.079749	0.632219
	H974	H	-0.025400	-0.059199	0.638386
	N975	N	-0.013350	0.076316	0.610908
	C976	C	-0.011551	0.076971	0.617081
	H977	H	-0.010017	0.086215	0.619594
	N978	N	-0.004973	0.005384	0.695319
	C979	C	-0.012653	-0.002042	0.692184
	H980	H	-0.019582	-0.008747	0.694761
	N981	N	-0.019767	-0.094707	0.622761
	C982	C	-0.013107	-0.084664	0.620711
	H983	H	-0.007437	-0.084715	0.616073
