data_Molecule from CHK

_cell_length_a		98.472578
_cell_length_b		38.017760
_cell_length_c		83.854471
_cell_angle_alpha	89.993466
_cell_angle_beta	89.995254
_cell_angle_gamma	90.022545
_symmetry_space_group_name_H-M	'P 1'
_symmetry_Int_Tables_number		1

loop_
	_symmetry_equiv_pos_as_xyz
	x,y,z

loop_
	_atom_site_label
	_atom_site_type_symbol
	_atom_site_fract_x
	_atom_site_fract_y
	_atom_site_fract_z
	C0	C	0.036501	0.000094	0.499940
	C1	C	0.029133	0.029476	0.494637
	C2	C	0.014997	0.029589	0.494746
	C3	C	0.007593	0.000105	0.499917
	C4	C	0.014978	-0.029384	0.505100
	C5	C	0.029114	-0.029282	0.505231
	C6	C	-0.007559	0.000112	0.499904
	C7	C	-0.014951	0.029585	0.505091
	C8	C	-0.029087	0.029509	0.505170
	C9	C	-0.036467	0.000104	0.499902
	C10	C	-0.029092	-0.029262	0.494596
	C11	C	-0.014956	-0.029361	0.494711
	H12	H	-0.034504	0.052498	0.509418
	H13	H	0.034526	-0.052368	0.509381
	H14	H	-0.034514	-0.052346	0.490452
	H15	H	0.034561	0.052558	0.490496
	H16	H	-0.009469	0.052380	0.509446
	H17	H	0.009491	-0.052200	0.509427
	H18	H	0.009526	0.052408	0.490411
	H19	H	-0.009479	-0.052168	0.490373
	C20	C	0.085463	0.033112	0.491771
	C21	C	0.073495	0.016201	0.496036
	C22	C	0.073483	-0.016057	0.503888
	C23	C	0.085439	-0.032983	0.508166
	C24	C	0.125271	0.061845	0.514931
	C25	C	0.111903	0.029865	0.492381
	C26	C	0.111881	-0.029776	0.507580
	C27	C	0.119086	-0.031831	0.491374
	C28	C	0.119128	0.000376	0.483166
	C29	C	0.125246	-0.061780	0.485040
	C30	C	0.097540	0.016208	0.495909
	C31	C	0.097528	-0.016095	0.504041
	C32	C	0.119116	-0.000300	0.516801
	C33	C	0.119097	0.031907	0.508593
	H34	H	0.111870	-0.054747	0.513952
	H35	H	0.125263	-0.086691	0.491298
	C36	C	0.131566	0.057921	0.529641
	C37	C	0.125407	0.003926	0.468324
	C38	C	0.131552	-0.057868	0.470334
	C39	C	0.125385	-0.003862	0.531647
	C40	C	0.131666	0.025972	0.537749
	H41	H	0.125546	0.028689	0.461948
	C42	C	0.131675	-0.025919	0.462226
	H43	H	0.125505	-0.028626	0.538023
	H44	H	0.111911	0.054836	0.486010
	H45	H	0.125306	0.086756	0.508674
	H46	H	0.085382	0.058095	0.485573
	H47	H	0.085340	-0.057966	0.514364
	B48	B	0.052148	0.000086	0.499951
	O49	O	0.060228	-0.026521	0.506328
	O50	O	0.060247	0.026684	0.493583
	B51	B	0.143193	-0.064819	0.447979
	O52	O	0.138576	-0.082465	0.461509
	O53	O	0.138841	-0.029945	0.448195
	B54	B	0.143196	0.064852	0.552004
	O55	O	0.138826	0.029984	0.551785
	O56	O	0.138598	0.082506	0.538472
	C57	C	0.874784	-0.061805	0.514933
	C58	C	0.868492	-0.057896	0.529647
	C59	C	0.868386	-0.025948	0.537752
	C60	C	0.874656	0.003899	0.531644
	C61	C	0.874625	-0.003878	0.468318
	C62	C	0.888138	-0.029798	0.492374
	C63	C	0.888147	0.029842	0.507567
	C64	C	0.902503	0.016186	0.504024
	C65	C	0.902498	-0.016115	0.495894
	C66	C	0.914588	0.033094	0.508143
	C67	C	0.880946	-0.031854	0.508588
	C68	C	0.880921	0.000351	0.516794
	C69	C	0.880939	0.031885	0.491364
	C70	C	0.880904	-0.000321	0.483158
	H71	H	0.888152	0.054812	0.513937
	H72	H	0.914681	0.058078	0.514338
	C73	C	0.868350	0.025959	0.462219
	C74	C	0.914579	-0.032999	0.491754
	C75	C	0.926547	0.016189	0.503863
	C76	C	0.874772	0.061826	0.485029
	C77	C	0.868465	0.057905	0.470325
	H78	H	0.914666	-0.057982	0.485559
	C79	C	0.926543	-0.016068	0.496013
	H80	H	0.874751	0.086738	0.491283
	H81	H	0.888136	-0.054767	0.486003
	H82	H	0.874493	-0.028639	0.461943
	H83	H	0.874756	-0.086717	0.508678
	H84	H	0.874531	0.028660	0.538018
	B85	B	0.856866	-0.064848	0.552015
	O86	O	0.861229	-0.029974	0.551792
	O87	O	0.861468	-0.082493	0.538483
	B88	B	0.947886	0.000085	0.499918
	O89	O	0.939800	0.026678	0.506296
	O90	O	0.939793	-0.026527	0.493556
	B91	B	0.856821	0.064842	0.447973
	O92	O	0.861435	0.082493	0.461499
	O93	O	0.861181	0.029974	0.448190
	C94	C	0.197574	0.159963	0.621969
	C95	C	0.186367	0.178655	0.616026
	C96	C	0.177318	0.163214	0.605369
	C97	C	0.179061	0.128373	0.600142
	C98	C	0.190173	0.109541	0.606293
	C99	C	0.199237	0.125005	0.616934
	C100	C	0.169644	0.112241	0.588249
	C101	C	0.165772	0.076707	0.589196
	C102	C	0.157234	0.061685	0.577840
	C103	C	0.152245	0.081460	0.564967
	C104	C	0.156018	0.117025	0.564069
	C105	C	0.164495	0.132077	0.575456
	H106	H	0.154480	0.034158	0.578857
	H107	H	0.207837	0.109964	0.621256
	H108	H	0.152385	0.132938	0.554222
	H109	H	0.184746	0.205603	0.619808
	H110	H	0.169372	0.060953	0.599105
	H111	H	0.191887	0.082787	0.602305
	H112	H	0.168655	0.178106	0.601127
	H113	H	0.167495	0.159384	0.574246
	C114	C	0.197568	0.840020	0.378046
	C115	C	0.186353	0.821333	0.383986
	C116	C	0.177304	0.836779	0.394639
	C117	C	0.179057	0.871622	0.399864
	C118	C	0.190179	0.890448	0.393717
	C119	C	0.199242	0.874979	0.383080
	C120	C	0.169641	0.887761	0.411752
	C121	C	0.165783	0.923297	0.410801
	C122	C	0.157245	0.938328	0.422152
	C123	C	0.152242	0.918560	0.435023
	C124	C	0.156000	0.882992	0.435925
	C125	C	0.164477	0.867931	0.424543
	H126	H	0.154503	0.965856	0.421132
	H127	H	0.207848	0.890015	0.378761
	H128	H	0.152355	0.867083	0.445770
	H129	H	0.184723	0.794385	0.380205
	H130	H	0.169394	0.939046	0.400892
	H131	H	0.191901	0.917202	0.397703
	H132	H	0.168634	0.821892	0.398878
	H133	H	0.167465	0.840622	0.425756
	C134	C	0.802480	0.839983	0.621976
	C135	C	0.813693	0.821302	0.616041
	C136	C	0.822745	0.836754	0.605386
	C137	C	0.821000	0.871593	0.600155
	C138	C	0.809882	0.890414	0.606299
	C139	C	0.800815	0.874940	0.616937
	C140	C	0.830419	0.887734	0.588263
	C141	C	0.834287	0.923271	0.589208
	C142	C	0.842826	0.938301	0.577851
	C143	C	0.847819	0.918532	0.564980
	C144	C	0.844051	0.882964	0.564085
	C145	C	0.835573	0.867903	0.575472
	H146	H	0.845576	0.965830	0.578866
	H147	H	0.792211	0.889972	0.621254
	H148	H	0.847688	0.867055	0.554239
	H149	H	0.815316	0.794357	0.619826
	H150	H	0.830683	0.939020	0.599116
	H151	H	0.808166	0.917166	0.602309
	H152	H	0.831412	0.821871	0.601150
	H153	H	0.832577	0.840594	0.574264
	C154	C	0.802430	0.159971	0.378045
	C155	C	0.813648	0.178655	0.383977
	C156	C	0.822697	0.163209	0.394629
	C157	C	0.820943	0.128370	0.399862
	C158	C	0.809820	0.109545	0.393722
	C159	C	0.800756	0.125014	0.383086
	C160	C	0.830359	0.112234	0.411752
	C161	C	0.834208	0.076690	0.410814
	C162	C	0.842761	0.061676	0.422153
	C163	C	0.847765	0.081450	0.435020
	C164	C	0.844003	0.117014	0.435918
	C165	C	0.835523	0.132069	0.424537
	H166	H	0.845510	0.034153	0.421132
	H167	H	0.792148	0.109979	0.378773
	H168	H	0.847648	0.132927	0.445760
	H169	H	0.815278	0.205601	0.380190
	H170	H	0.830622	0.060960	0.400888
	H171	H	0.808098	0.082793	0.397714
	H172	H	0.831368	0.178095	0.398862
	H173	H	0.832536	0.159378	0.425745
	C174	C	0.258200	0.218952	0.701655
	C175	C	0.254025	0.235021	0.715699
	C176	C	0.245983	0.265122	0.715694
	C177	C	0.241807	0.281169	0.701644
	C178	C	0.239064	0.186009	0.654830
	C179	C	0.257311	0.221552	0.670607
	C180	C	0.242700	0.278531	0.670597
	C181	C	0.256422	0.283246	0.662145
	C182	C	0.264278	0.252419	0.662081
	C183	C	0.260953	0.314061	0.654816
	C184	C	0.253994	0.234742	0.687463
	C185	C	0.246013	0.265358	0.687458
	C186	C	0.235736	0.247656	0.662080
	C187	C	0.243592	0.216829	0.662154
	H188	H	0.236584	0.302399	0.670595
	H189	H	0.254946	0.337907	0.654773
	C190	C	0.226528	0.187692	0.647274
	C191	C	0.276948	0.251152	0.654643
	C192	C	0.273493	0.312376	0.647266
	C193	C	0.223069	0.248920	0.654636
	C194	C	0.218772	0.218292	0.647149
	H195	H	0.283037	0.227449	0.654477
	C196	C	0.281248	0.281775	0.647149
	H197	H	0.216980	0.272623	0.654462
	H198	H	0.263428	0.197683	0.670613
	H199	H	0.245070	0.162162	0.654794
	H200	H	0.264393	0.195429	0.701765
	H201	H	0.235614	0.304693	0.701746
	B202	B	0.250004	0.250091	0.740757
	O203	O	0.243344	0.274727	0.731254
	O204	O	0.256662	0.225438	0.731263
	B205	B	0.292114	0.322398	0.633186
	O206	O	0.280243	0.338095	0.638774
	O207	O	0.292964	0.287761	0.638545
	B208	B	0.207913	0.177667	0.633187
	O209	O	0.207061	0.212305	0.638540
	O210	O	0.219781	0.161969	0.638784
	C211	C	0.258185	0.781017	0.298365
	C212	C	0.254005	0.764947	0.284321
	C213	C	0.245955	0.734845	0.284328
	C214	C	0.241775	0.718797	0.298379
	C215	C	0.239058	0.813961	0.345191
	C216	C	0.257295	0.778418	0.329413
	C217	C	0.242668	0.721437	0.329426
	C218	C	0.256388	0.716725	0.337876
	C219	C	0.264253	0.747552	0.337938
	C220	C	0.260909	0.685911	0.345205
	C221	C	0.253974	0.765226	0.312558
	C222	C	0.245985	0.734609	0.312564
	C223	C	0.235712	0.752313	0.337943
	C224	C	0.243577	0.783141	0.337868
	H225	H	0.236544	0.697569	0.329429
	H226	H	0.254897	0.662063	0.345249
	C227	C	0.226520	0.812280	0.352748
	C228	C	0.276923	0.748822	0.345373
	C229	C	0.273450	0.687597	0.352752
	C230	C	0.223044	0.751051	0.345388
	C231	C	0.218755	0.781680	0.352874
	H232	H	0.283019	0.772525	0.345537
	C233	C	0.281215	0.718199	0.352866
	H234	H	0.216948	0.727347	0.345563
	H235	H	0.263419	0.802287	0.329405
	H236	H	0.245071	0.837808	0.345225
	H237	H	0.264385	0.804540	0.298253
	H238	H	0.235575	0.695272	0.298278
	B239	B	0.249981	0.749876	0.259264
	O240	O	0.243314	0.725239	0.268768
	O241	O	0.256646	0.774530	0.268757
	B242	B	0.292070	0.677578	0.366825
	O243	O	0.280194	0.661879	0.361242
	O244	O	0.292929	0.712215	0.361466
	B245	B	0.207905	0.822310	0.366832
	O246	O	0.207044	0.787671	0.361482
	O247	O	0.219779	0.838006	0.361236
	C248	C	0.741828	0.781037	0.701654
	C249	C	0.745998	0.764980	0.715703
	C250	C	0.754039	0.734877	0.715708
	C251	C	0.758219	0.718818	0.701664
	C252	C	0.760977	0.813938	0.654825
	C253	C	0.742725	0.778409	0.670606
	C254	C	0.757336	0.721429	0.670616
	C255	C	0.743617	0.716707	0.662163
	C256	C	0.735761	0.747535	0.662088
	C257	C	0.739088	0.685886	0.654842
	C258	C	0.746038	0.765234	0.687467
	C259	C	0.754018	0.734618	0.687472
	C260	C	0.764303	0.752297	0.662091
	C261	C	0.756447	0.783124	0.662155
	H262	H	0.763453	0.697561	0.670622
	H263	H	0.745094	0.662039	0.654806
	C264	C	0.773517	0.812253	0.647273
	C265	C	0.723093	0.748796	0.654648
	C266	C	0.726550	0.687565	0.647289
	C267	C	0.776972	0.751028	0.654650
	C268	C	0.781272	0.781652	0.647156
	H269	H	0.717004	0.772499	0.654474
	C270	C	0.718795	0.718166	0.647162
	H271	H	0.783062	0.727325	0.654484
	H272	H	0.736609	0.802277	0.670605
	H273	H	0.754971	0.837785	0.654781
	H274	H	0.735635	0.804561	0.701756
	H275	H	0.764412	0.695293	0.701774
	B276	B	0.750009	0.749930	0.740766
	O277	O	0.756671	0.725284	0.731272
	O278	O	0.743354	0.774576	0.731263
	B279	B	0.707931	0.677531	0.633210
	O280	O	0.719801	0.661838	0.638803
	O281	O	0.707081	0.712173	0.638559
	B282	B	0.792137	0.822274	0.633191
	O283	O	0.792987	0.787637	0.638550
	O284	O	0.780266	0.837972	0.638781
	C285	C	0.741798	0.218902	0.298375
	C286	C	0.745973	0.234960	0.284325
	C287	C	0.754023	0.265063	0.284319
	C288	C	0.758207	0.281124	0.298362
	C289	C	0.760935	0.186008	0.345203
	C290	C	0.742694	0.221533	0.329422
	C291	C	0.757321	0.278515	0.329410
	C292	C	0.743603	0.283236	0.337864
	C293	C	0.735738	0.252408	0.337940
	C294	C	0.739082	0.314058	0.345184
	C295	C	0.746012	0.234707	0.312561
	C296	C	0.754001	0.265324	0.312555
	C297	C	0.764279	0.247648	0.337935
	C298	C	0.756414	0.216820	0.337873
	H299	H	0.763445	0.302383	0.329403
	H300	H	0.745094	0.337906	0.345218
	C301	C	0.773475	0.187695	0.352752
	C302	C	0.723068	0.251147	0.345381
	C303	C	0.726542	0.312380	0.352737
	C304	C	0.776948	0.248919	0.345374
	C305	C	0.781239	0.218296	0.352868
	H306	H	0.716973	0.227443	0.345554
	C307	C	0.718777	0.281778	0.352864
	H308	H	0.783044	0.272623	0.345540
	H309	H	0.736571	0.197665	0.329425
	H310	H	0.754922	0.162160	0.345247
	H311	H	0.735599	0.195377	0.298274
	H312	H	0.764407	0.304650	0.298251
	B313	B	0.749990	0.250012	0.259261
	O314	O	0.756659	0.274657	0.268755
	O315	O	0.743328	0.225364	0.268765
	B316	B	0.707922	0.322417	0.366812
	O317	O	0.719799	0.338108	0.361220
	O318	O	0.707063	0.287774	0.361465
	B319	B	0.792091	0.177677	0.366833
	O320	O	0.792951	0.212313	0.361473
	O321	O	0.780216	0.161977	0.361245
	C322	C	0.249969	0.250062	0.844842
	C323	C	0.262044	0.245404	0.836184
	C324	C	0.262047	0.245313	0.819584
	C325	C	0.249987	0.250090	0.810886
	C326	C	0.237917	0.254852	0.819569
	C327	C	0.237904	0.254734	0.836170
	C328	C	0.249998	0.250108	0.793087
	C329	C	0.242122	0.274247	0.784394
	C330	C	0.242187	0.274376	0.767793
	C331	C	0.250008	0.250112	0.759132
	C332	C	0.257851	0.225903	0.767799
	C333	C	0.257882	0.225976	0.784400
	H334	H	0.236031	0.293397	0.761426
	H335	H	0.228407	0.258156	0.842529
	H336	H	0.263936	0.206723	0.761438
	H337	H	0.271534	0.241972	0.842554
	H338	H	0.236124	0.293512	0.790812
	H339	H	0.228442	0.257983	0.813144
	H340	H	0.271530	0.242192	0.813169
	H341	H	0.263865	0.206685	0.790822
	C342	C	0.302458	0.340102	0.621971
	C343	C	0.313670	0.321414	0.616038
	C344	C	0.322724	0.336855	0.605382
	C345	C	0.320980	0.371693	0.600147
	C346	C	0.309863	0.390521	0.606287
	C347	C	0.300795	0.375056	0.616927
	C348	C	0.330401	0.387823	0.588254
	C349	C	0.334271	0.423359	0.589196
	C350	C	0.342813	0.438378	0.577840
	C351	C	0.347807	0.418600	0.564972
	C352	C	0.344036	0.383032	0.564080
	C353	C	0.335556	0.367982	0.575467
	H354	H	0.345565	0.465907	0.578852
	H355	H	0.292191	0.390094	0.621241
	H356	H	0.347674	0.367116	0.554238
	H357	H	0.315292	0.294470	0.619826
	H358	H	0.330666	0.439116	0.599101
	H359	H	0.308148	0.417271	0.602294
	H360	H	0.331390	0.321968	0.601149
	H361	H	0.332559	0.340673	0.574262
	C362	C	0.302412	0.659874	0.378035
	C363	C	0.313630	0.678564	0.383961
	C364	C	0.322684	0.663123	0.394610
	C365	C	0.320933	0.628285	0.399846
	C366	C	0.309808	0.609455	0.393713
	C367	C	0.300741	0.624919	0.383079
	C368	C	0.330354	0.612157	0.411731
	C369	C	0.334215	0.576623	0.410787
	C370	C	0.342759	0.561608	0.422136
	C371	C	0.347765	0.581390	0.434998
	C372	C	0.344003	0.616955	0.435894
	C373	C	0.335520	0.632000	0.424514
	H374	H	0.345505	0.534080	0.421121
	H375	H	0.292132	0.609880	0.378771
	H376	H	0.347649	0.632873	0.445733
	H377	H	0.315259	0.705509	0.380172
	H378	H	0.330601	0.560864	0.400885
	H379	H	0.308088	0.582704	0.397707
	H380	H	0.331356	0.678013	0.398838
	H381	H	0.332529	0.659308	0.425722
	C382	C	0.249953	0.749924	0.155179
	C383	C	0.262027	0.754594	0.163836
	C384	C	0.262030	0.754680	0.180437
	C385	C	0.249968	0.749887	0.189135
	C386	C	0.237898	0.745113	0.180453
	C387	C	0.237886	0.745235	0.163852
	C388	C	0.249978	0.749865	0.206934
	C389	C	0.242096	0.725720	0.215628
	C390	C	0.242160	0.725590	0.232228
	C391	C	0.249985	0.749858	0.240890
	C392	C	0.257834	0.774071	0.232222
	C393	C	0.257866	0.774000	0.215621
	H394	H	0.235999	0.706565	0.238595
	H395	H	0.228389	0.741804	0.157494
	H396	H	0.263924	0.793253	0.238583
	H397	H	0.271518	0.758040	0.157466
	H398	H	0.236094	0.706453	0.209210
	H399	H	0.228422	0.741969	0.186879
	H400	H	0.271512	0.757810	0.186850
	H401	H	0.263854	0.793295	0.209199
	C402	C	0.652272	0.581356	0.564971
	C403	C	0.657276	0.561553	0.577827
	C404	C	0.665786	0.576584	0.589210
	C405	C	0.669673	0.612107	0.588259
	C406	C	0.664543	0.631944	0.575457
	C407	C	0.656060	0.616911	0.564071
	C408	C	0.679082	0.628230	0.600164
	C409	C	0.677352	0.663092	0.605368
	C410	C	0.686371	0.678490	0.616075
	C411	C	0.697589	0.659818	0.621999
	C412	C	0.699248	0.624852	0.616972
	C413	C	0.690182	0.609383	0.606334
	H414	H	0.684798	0.705513	0.619774
	H415	H	0.652430	0.632833	0.554225
	H416	H	0.707846	0.609811	0.621297
	H417	H	0.654441	0.534092	0.578902
	H418	H	0.668685	0.677976	0.601131
	H419	H	0.667553	0.659242	0.574245
	H420	H	0.669363	0.560838	0.599133
	H421	H	0.691890	0.582618	0.602359
	C422	C	0.750008	0.749987	0.844850
	C423	C	0.737937	0.754658	0.836189
	C424	C	0.737939	0.754751	0.819588
	C425	C	0.750002	0.749964	0.810894
	C426	C	0.762068	0.745190	0.819582
	C427	C	0.762076	0.745307	0.836182
	C428	C	0.749999	0.749946	0.793096
	C429	C	0.757886	0.725821	0.784409
	C430	C	0.757816	0.725660	0.767809
	C431	C	0.750000	0.749925	0.759141
	C432	C	0.742157	0.774144	0.767801
	C433	C	0.742119	0.774076	0.784402
	H434	H	0.763968	0.706622	0.761448
	H435	H	0.771570	0.741875	0.842544
	H436	H	0.736076	0.793324	0.761434
	H437	H	0.728445	0.758098	0.842556
	H438	H	0.763855	0.706501	0.790833
	H439	H	0.771546	0.742050	0.813159
	H440	H	0.728459	0.757882	0.813171
	H441	H	0.736134	0.793368	0.790819
	C442	C	0.749988	0.249985	0.155176
	C443	C	0.737916	0.245302	0.163840
	C444	C	0.737918	0.245204	0.180440
	C445	C	0.749981	0.250000	0.189133
	C446	C	0.762048	0.254786	0.180443
	C447	C	0.762057	0.254675	0.163843
	C448	C	0.749978	0.250012	0.206931
	C449	C	0.757872	0.274136	0.215618
	C450	C	0.757802	0.274291	0.232218
	C451	C	0.749981	0.250020	0.240887
	C452	C	0.742131	0.225802	0.232226
	C453	C	0.742093	0.225876	0.215626
	H454	H	0.763959	0.293329	0.238579
	H455	H	0.771551	0.258116	0.157480
	H456	H	0.736045	0.206618	0.238593
	H457	H	0.728424	0.241854	0.157474
	H458	H	0.763845	0.293461	0.209194
	H459	H	0.771526	0.257933	0.186864
	H460	H	0.728437	0.242064	0.186859
	H461	H	0.736102	0.206583	0.209209
	C462	C	0.652267	0.418646	0.435017
	C463	C	0.657285	0.438442	0.422163
	C464	C	0.665794	0.423401	0.410785
	C465	C	0.669667	0.387876	0.411740
	C466	C	0.664522	0.368047	0.424541
	C467	C	0.656040	0.383089	0.435922
	C468	C	0.679075	0.371742	0.399841
	C469	C	0.677336	0.336877	0.394641
	C470	C	0.686354	0.321471	0.383940
	C471	C	0.697582	0.340136	0.378018
	C472	C	0.699250	0.375105	0.383041
	C473	C	0.690185	0.390583	0.393673
	H474	H	0.684774	0.294447	0.380243
	H475	H	0.652398	0.367172	0.445767
	H476	H	0.707855	0.390141	0.378718
	H477	H	0.654461	0.465904	0.421084
	H478	H	0.668663	0.321999	0.398875
	H479	H	0.667521	0.340747	0.425756
	H480	H	0.669383	0.439141	0.400862
	H481	H	0.691901	0.417349	0.397647
	C482	C	0.264473	0.248186	0.902332
	C483	C	0.257009	0.249025	0.888282
	C484	C	0.242896	0.251039	0.888276
	C485	C	0.235423	0.251861	0.902321
	C486	C	0.265444	0.307214	0.949300
	C487	C	0.263130	0.248468	0.933387
	C488	C	0.236745	0.251536	0.933377
	C489	C	0.242254	0.218734	0.941914
	C490	C	0.256499	0.216892	0.941713
	C491	C	0.234421	0.192766	0.949277
	C492	C	0.257068	0.249215	0.916518
	C493	C	0.242818	0.250816	0.916513
	C494	C	0.243371	0.283100	0.941715
	C495	C	0.257615	0.281257	0.941927
	H496	H	0.225694	0.252790	0.933374
	H497	H	0.223441	0.194087	0.949593
	C498	C	0.258407	0.334921	0.956262
	C499	C	0.263457	0.188730	0.948567
	C500	C	0.241453	0.165050	0.956239
	C501	C	0.236408	0.311249	0.948572
	C502	C	0.244304	0.337069	0.955725
	H503	H	0.274430	0.187009	0.948360
	C504	C	0.255557	0.162901	0.955711
	H505	H	0.225435	0.312971	0.948358
	H506	H	0.274181	0.247214	0.933390
	H507	H	0.276423	0.305892	0.949624
	H508	H	0.275454	0.246774	0.902230
	H509	H	0.224442	0.253274	0.902212
	B510	B	0.249961	0.250050	0.863217
	O511	O	0.238364	0.251865	0.872712
	O512	O	0.261552	0.248222	0.872721
	B513	B	0.247785	0.116262	0.968602
	O514	O	0.236473	0.136203	0.964367
	O515	O	0.259639	0.132457	0.963240
	B516	B	0.252068	0.383693	0.968629
	O517	O	0.240217	0.367504	0.963257
	O518	O	0.263382	0.363757	0.964397
	C519	C	0.414592	0.533098	0.508134
	C520	C	0.426551	0.516185	0.503860
	C521	C	0.426547	0.483920	0.496016
	C522	C	0.414583	0.466989	0.491757
	C523	C	0.374776	0.561815	0.485008
	C524	C	0.388150	0.529852	0.507552
	C525	C	0.388142	0.470198	0.492369
	C526	C	0.380949	0.468158	0.508584
	C527	C	0.380922	0.500371	0.516783
	C528	C	0.374783	0.438214	0.514931
	C529	C	0.402507	0.516191	0.504013
	C530	C	0.402502	0.483881	0.495890
	C531	C	0.380910	0.499669	0.483147
	C532	C	0.380945	0.531881	0.491347
	H533	H	0.388140	0.445223	0.486004
	H534	H	0.374755	0.413297	0.508680
	C535	C	0.368468	0.557880	0.470305
	C536	C	0.374655	0.503933	0.531630
	C537	C	0.368488	0.442138	0.529641
	C538	C	0.374629	0.496095	0.468309
	C539	C	0.368353	0.525925	0.462205
	H540	H	0.374529	0.528700	0.538000
	C541	C	0.368381	0.474093	0.537741
	H542	H	0.374495	0.471326	0.461940
	H543	H	0.388155	0.554827	0.513918
	H544	H	0.374753	0.586732	0.491258
	H545	H	0.414685	0.558087	0.514324
	H546	H	0.414670	0.442001	0.485566
	B547	B	0.447890	0.500071	0.499922
	O548	O	0.439797	0.473456	0.493564
	O549	O	0.439804	0.526671	0.506294
	B550	B	0.356858	0.435207	0.552007
	O551	O	0.361461	0.417550	0.538479
	O552	O	0.361221	0.470080	0.551780
	B553	B	0.356821	0.564792	0.447954
	O554	O	0.361181	0.529926	0.448177
	O555	O	0.361436	0.582457	0.461476
	C556	C	0.264463	0.751826	0.097689
	C557	C	0.256997	0.750975	0.111739
	C558	C	0.242884	0.748935	0.111745
	C559	C	0.235412	0.748096	0.097700
	C560	C	0.265440	0.692791	0.050725
	C561	C	0.263123	0.751537	0.066634
	C562	C	0.236738	0.748415	0.066644
	C563	C	0.242249	0.781225	0.058105
	C564	C	0.256493	0.783098	0.058306
	C565	C	0.234416	0.807176	0.050742
	C566	C	0.257059	0.750780	0.083502
	C567	C	0.242809	0.749152	0.083508
	C568	C	0.243365	0.716862	0.058308
	C569	C	0.257609	0.718735	0.058096
	H570	H	0.225687	0.747138	0.066648
	H571	H	0.223436	0.805832	0.050426
	C572	C	0.258404	0.665066	0.043765
	C573	C	0.263452	0.811274	0.051453
	C574	C	0.241449	0.834908	0.043780
	C575	C	0.236403	0.688695	0.051454
	C576	C	0.244301	0.662887	0.044303
	H577	H	0.274425	0.813019	0.051660
	C578	C	0.255552	0.837087	0.044309
	H579	H	0.225431	0.686951	0.051668
	H580	H	0.274174	0.752814	0.066630
	H581	H	0.276419	0.694135	0.050401
	H582	H	0.275443	0.753260	0.097790
	H583	H	0.224431	0.746662	0.097810
	B584	B	0.249947	0.749939	0.136804
	O585	O	0.238350	0.748103	0.127309
	O586	O	0.261538	0.751788	0.127299
	B587	B	0.247781	0.883713	0.031420
	O588	O	0.236470	0.863744	0.035653
	O589	O	0.259635	0.867542	0.036782
	B590	B	0.252067	0.616264	0.031411
	O591	O	0.240215	0.632437	0.036777
	O592	O	0.263380	0.636231	0.035637
	C593	C	0.585465	0.533099	0.491784
	C594	C	0.573498	0.516182	0.496045
	C595	C	0.573487	0.483914	0.503890
	C596	C	0.585443	0.466984	0.508162
	C597	C	0.625275	0.561811	0.514947
	C598	C	0.611905	0.529855	0.492391
	C599	C	0.611886	0.470196	0.507575
	C600	C	0.619090	0.468162	0.491368
	C601	C	0.619131	0.500379	0.483168
	C602	C	0.625252	0.438223	0.485027
	C603	C	0.597543	0.516192	0.495917
	C604	C	0.597532	0.483879	0.504041
	C605	C	0.619120	0.499664	0.516803
	C606	C	0.619101	0.531880	0.508603
	H607	H	0.611876	0.445219	0.513942
	H608	H	0.625270	0.413304	0.491279
	C609	C	0.631572	0.557871	0.529654
	C610	C	0.625410	0.503948	0.468326
	C611	C	0.631560	0.442155	0.470323
	C612	C	0.625391	0.496086	0.531648
	C613	C	0.631672	0.525914	0.537755
	H614	H	0.625547	0.528718	0.461957
	C615	C	0.631680	0.474113	0.462222
	H616	H	0.625513	0.471316	0.538018
	H617	H	0.611912	0.554833	0.486025
	H618	H	0.625309	0.586730	0.508695
	H619	H	0.585384	0.558090	0.485592
	H620	H	0.585345	0.441994	0.514354
	B621	B	0.552152	0.500061	0.499958
	O622	O	0.560232	0.473447	0.506328
	O623	O	0.560250	0.526667	0.493596
	B624	B	0.643207	0.435239	0.447970
	O625	O	0.638588	0.417574	0.461493
	O626	O	0.638849	0.470109	0.448192
	B627	B	0.643212	0.564772	0.552013
	O628	O	0.638838	0.529908	0.551789
	O629	O	0.638609	0.582444	0.538487
	C630	C	0.735491	0.751840	0.902338
	C631	C	0.742958	0.751010	0.888289
	C632	C	0.757071	0.748998	0.888285
	C633	C	0.764542	0.748172	0.902330
	C634	C	0.734515	0.692784	0.949304
	C635	C	0.736829	0.751540	0.933393
	C636	C	0.763214	0.748481	0.933386
	C637	C	0.757701	0.781275	0.941923
	C638	C	0.743457	0.783113	0.941721
	C639	C	0.765533	0.807241	0.949285
	C640	C	0.742894	0.750805	0.916525
	C641	C	0.757144	0.749208	0.916521
	C642	C	0.756588	0.716909	0.941722
	C643	C	0.742344	0.718748	0.941933
	H644	H	0.774265	0.747230	0.933382
	H645	H	0.776512	0.805925	0.949601
	C646	C	0.741552	0.665076	0.956267
	C647	C	0.736496	0.811267	0.948575
	C648	C	0.758497	0.834951	0.956248
	C649	C	0.763551	0.688758	0.948578
	C650	C	0.755655	0.662931	0.955729
	H651	H	0.725523	0.812985	0.948369
	C652	C	0.744394	0.837094	0.955720
	H653	H	0.774524	0.687042	0.948366
	H654	H	0.725778	0.752791	0.933396
	H655	H	0.723535	0.694102	0.949628
	H656	H	0.724511	0.753251	0.902236
	H657	H	0.775523	0.746762	0.902221
	B658	B	0.750011	0.749995	0.863226
	O659	O	0.761606	0.748178	0.872721
	O660	O	0.738418	0.751819	0.872728
	B661	B	0.752162	0.883727	0.968613
	O662	O	0.763475	0.863793	0.964376
	O663	O	0.740309	0.867532	0.963250
	B664	B	0.747891	0.616297	0.968632
	O665	O	0.759742	0.632494	0.963261
	O666	O	0.736577	0.636232	0.964400
	C667	C	0.735477	0.248112	0.097689
	C668	C	0.742942	0.248954	0.111738
	C669	C	0.757056	0.250991	0.111742
	C670	C	0.764528	0.251834	0.097696
	C671	C	0.734506	0.307171	0.050725
	C672	C	0.736818	0.248416	0.066634
	C673	C	0.763204	0.251530	0.066641
	C674	C	0.757692	0.218726	0.058103
	C675	C	0.743448	0.216858	0.058305
	C676	C	0.765525	0.192776	0.050740
	C677	C	0.742882	0.249162	0.083501
	C678	C	0.757131	0.250787	0.083505
	C679	C	0.756579	0.283089	0.058305
	C680	C	0.742335	0.281221	0.058095
	H681	H	0.774255	0.252804	0.066644
	H682	H	0.776504	0.194116	0.050423
	C683	C	0.741544	0.334899	0.043767
	C684	C	0.736488	0.188688	0.051452
	C685	C	0.758491	0.165050	0.043779
	C686	C	0.763543	0.311256	0.051451
	C687	C	0.755647	0.337071	0.044303
	H688	H	0.725515	0.186947	0.051659
	C689	C	0.744387	0.162876	0.044309
	H690	H	0.774516	0.312996	0.051664
	H691	H	0.725767	0.247143	0.066631
	H692	H	0.723527	0.305831	0.050403
	H693	H	0.724497	0.246681	0.097791
	H694	H	0.775509	0.253265	0.097805
	B695	B	0.749992	0.249979	0.136801
	O696	O	0.761589	0.251817	0.127305
	O697	O	0.738401	0.248135	0.127299
	B698	B	0.752158	0.116251	0.031421
	O699	O	0.763470	0.136215	0.035653
	O700	O	0.740304	0.132425	0.036782
	B701	B	0.747884	0.383704	0.031413
	O702	O	0.759735	0.367524	0.036777
	O703	O	0.736569	0.363738	0.035639
	C704	C	0.247432	-0.081383	0.022087
	C705	C	0.259219	-0.060943	0.020446
	C706	C	0.259082	-0.029375	0.012048
	C707	C	0.247211	-0.016873	0.004631
	C708	C	0.235430	-0.037512	0.006283
	C709	C	0.235512	-0.068864	0.014886
	C710	C	0.247212	0.016859	-0.004599
	C711	C	0.235422	0.037423	-0.006289
	C712	C	0.235518	0.068841	-0.014843
	C713	C	0.247436	0.081366	-0.022058
	C714	C	0.259227	0.060976	-0.020395
	C715	C	0.259090	0.029420	-0.011989
	H716	H	0.226240	0.084013	-0.015909
	H717	H	0.226258	-0.084184	0.015854
	H718	H	0.268581	0.069769	-0.025941
	H719	H	0.268570	-0.069705	0.026001
	H720	H	0.226117	0.029173	-0.000498
	H721	H	0.226126	-0.029280	0.000493
	H722	H	0.268304	-0.013883	0.011498
	H723	H	0.268319	0.013974	-0.011417
	C724	C	0.252414	0.581355	0.022085
	C725	C	0.240626	0.560922	0.020445
	C726	C	0.240763	0.529348	0.012055
	C727	C	0.252635	0.516830	0.004645
	C728	C	0.264417	0.537462	0.006296
	C729	C	0.264335	0.568822	0.014891
	C730	C	0.252634	0.483089	-0.004575
	C731	C	0.264420	0.462502	-0.006247
	C732	C	0.264328	0.431103	-0.014812
	C733	C	0.252412	0.418582	-0.022028
	C734	C	0.240621	0.438972	-0.020368
	C735	C	0.240757	0.470531	-0.011966
	H736	H	0.273608	0.415936	-0.015880
	H737	H	0.273591	0.584134	0.015858
	H738	H	0.231269	0.430184	-0.025916
	H739	H	0.231274	0.569696	0.025994
	H740	H	0.273732	0.470791	-0.000487
	H741	H	0.273723	0.529219	0.000511
	H742	H	0.231539	0.513863	0.011506
	H743	H	0.231530	0.485982	-0.011401
	C744	C	0.536505	0.500068	0.499948
	C745	C	0.529137	0.529459	0.494654
	C746	C	0.515001	0.529572	0.494763
	C747	C	0.507597	0.500081	0.499926
	C748	C	0.514982	0.470584	0.505100
	C749	C	0.529117	0.470685	0.505231
	C750	C	0.492445	0.500089	0.499912
	C751	C	0.485053	0.529564	0.505098
	C752	C	0.470917	0.529491	0.505175
	C753	C	0.463537	0.500086	0.499909
	C754	C	0.470911	0.470717	0.494605
	C755	C	0.485047	0.470616	0.494720
	H756	H	0.465500	0.552482	0.509422
	H757	H	0.534530	0.447594	0.509374
	H758	H	0.465489	0.447633	0.490462
	H759	H	0.534565	0.552546	0.490520
	H760	H	0.490535	0.552360	0.509452
	H761	H	0.509495	0.447763	0.509421
	H762	H	0.509530	0.552398	0.490434
	H763	H	0.490523	0.447806	0.490384
	C764	C	0.752506	0.081349	0.022091
	C765	C	0.740719	0.060914	0.020450
	C766	C	0.740857	0.029347	0.012055
	C767	C	0.752729	0.016841	0.004642
	C768	C	0.764511	0.037476	0.006293
	C769	C	0.764428	0.068828	0.014894
	C770	C	0.752729	-0.016892	-0.004583
	C771	C	0.764516	-0.037473	-0.006260
	C772	C	0.764425	-0.068867	-0.014829
	C773	C	0.752508	-0.081388	-0.022043
	C774	C	0.740716	-0.061003	-0.020379
	C775	C	0.740852	-0.029449	-0.011974
	H776	H	0.773704	-0.084030	-0.015901
	H777	H	0.773683	0.084144	0.015861
	H778	H	0.731363	-0.069793	-0.025925
	H779	H	0.731367	0.069680	0.026002
	H780	H	0.773829	-0.029183	-0.000502
	H781	H	0.773816	0.029242	0.000505
	H782	H	0.731634	0.013858	0.011505
	H783	H	0.731624	-0.014000	-0.011405
	C784	C	0.747539	0.418616	0.022087
	C785	C	0.759327	0.439050	0.020448
	C786	C	0.759192	0.470627	0.012057
	C787	C	0.747320	0.483147	0.004647
	C788	C	0.735538	0.462514	0.006296
	C789	C	0.735619	0.431152	0.014892
	C790	C	0.747323	0.516891	-0.004573
	C791	C	0.735537	0.537476	-0.006246
	C792	C	0.735629	0.568878	-0.014811
	C793	C	0.747546	0.581405	-0.022026
	C794	C	0.759338	0.561017	-0.020366
	C795	C	0.759201	0.529454	-0.011964
	H796	H	0.726349	0.584044	-0.015881
	H797	H	0.726362	0.415838	0.015858
	H798	H	0.768691	0.569811	-0.025912
	H799	H	0.768678	0.430274	0.025998
	H800	H	0.726223	0.529181	-0.000488
	H801	H	0.726233	0.470759	0.000511
	H802	H	0.768415	0.486113	0.011509
	H803	H	0.768428	0.514004	-0.011398
