data_Molecule from CHK

_cell_length_a		124.366911
_cell_length_b		50.414035
_cell_length_c		96.094634
_cell_angle_alpha	89.988588
_cell_angle_beta	85.927199
_cell_angle_gamma	91.730630
_symmetry_space_group_name_H-M	'P 1'
_symmetry_Int_Tables_number		1

loop_
	_symmetry_equiv_pos_as_xyz
	x,y,z

loop_
	_atom_site_label
	_atom_site_type_symbol
	_atom_site_fract_x
	_atom_site_fract_y
	_atom_site_fract_z
	C0	C	0.028022	-0.021163	0.508913
	C1	C	0.022990	0.001774	0.504684
	C2	C	0.012017	0.001477	0.502239
	C3	C	0.005752	-0.022622	0.504222
	C4	C	0.010807	-0.045966	0.508613
	C5	C	0.021826	-0.044820	0.510805
	H6	H	0.027743	0.020081	0.503258
	H7	H	0.025690	-0.062490	0.514148
	C8	C	-0.005428	-0.023363	0.501855
	C9	C	-0.010456	-0.000071	0.497344
	C10	C	-0.021445	-0.001288	0.495003
	C11	C	-0.027685	-0.024822	0.497115
	C12	C	-0.022716	-0.047642	0.501622
	C13	C	-0.011719	-0.047396	0.503959
	H14	H	-0.025278	0.016346	0.491517
	H15	H	-0.027485	-0.065873	0.503233
	C16	C	0.004280	-0.069951	0.510623
	C17	C	-0.006422	-0.070620	0.508442
	H18	H	0.008132	-0.087625	0.513985
	H19	H	-0.011191	-0.088862	0.510034
	C20	C	0.006726	0.024698	0.497746
	C21	C	-0.003943	0.023942	0.495385
	H22	H	0.011484	0.042978	0.496244
	H23	H	-0.007792	0.041595	0.491980
	N24	N	0.044658	-0.041170	0.513923
	C25	C	0.039613	-0.020165	0.511296
	H26	H	0.043738	-0.000633	0.510211
	N27	N	-0.043761	-0.005647	0.489556
	C28	C	-0.039261	-0.025631	0.494653
	H29	H	-0.043811	-0.044188	0.497245
	N30	N	0.105626	-0.025812	0.529855
	C31	C	0.094294	-0.024499	0.528607
	C32	C	0.110871	-0.008047	0.538966
	C33	C	0.111666	-0.044964	0.521943
	C34	C	0.105535	0.000755	0.551406
	C35	C	0.087820	-0.047739	0.528107
	C36	C	0.120211	-0.057943	0.527551
	C37	C	0.121572	0.000978	0.535854
	C38	C	0.110704	0.017794	0.560369
	H39	H	0.097345	-0.006213	0.554204
	C40	C	0.089285	-0.000023	0.527860
	C41	C	0.076751	-0.046551	0.526907
	H42	H	0.091531	-0.066770	0.529009
	C43	C	0.109221	-0.051398	0.508271
	C44	C	0.126261	-0.076059	0.519650
	H45	H	0.121998	-0.054063	0.538242
	C46	C	0.126742	0.017942	0.544852
	H47	H	0.125837	-0.005304	0.526261
	C48	C	0.121361	0.026724	0.557225
	H49	H	0.106540	0.024283	0.570014
	C50	C	0.078233	0.001111	0.526551
	H51	H	0.094124	0.018152	0.528190
	C52	C	0.071797	-0.022077	0.525955
	H53	H	0.071921	-0.064789	0.527123
	C54	C	0.115285	-0.069517	0.500379
	H55	H	0.102580	-0.041828	0.503815
	C56	C	0.124036	-0.081698	0.505872
	H57	H	0.132821	-0.086111	0.524063
	H58	H	0.135097	0.023939	0.542399
	H59	H	0.074427	0.020123	0.526007
	H60	H	0.113129	-0.074609	0.489968
	C61	C	0.126714	0.044991	0.567205
	O62	O	0.124488	0.043827	0.579692
	N63	N	0.134170	0.063306	0.560773
	H64	H	0.133594	0.067658	0.550506
	C65	C	0.059891	-0.019699	0.524494
	O66	O	0.055000	-0.000879	0.529240
	N67	N	0.055270	-0.039432	0.516321
	H68	H	0.059792	-0.054540	0.512420
	C69	C	0.130877	-0.101025	0.497609
	O70	O	0.134003	-0.121140	0.502728
	N71	N	0.133450	-0.093615	0.483706
	H72	H	0.131358	-0.075409	0.480460
	N73	N	0.895126	0.000579	0.474276
	C74	C	0.906438	0.003398	0.475720
	C75	C	0.890024	0.017797	0.465133
	C76	C	0.888970	-0.019538	0.481996
	C77	C	0.895503	0.027451	0.452797
	C78	C	0.912870	-0.018967	0.476143
	C79	C	0.880461	-0.033545	0.476170
	C80	C	0.879321	0.025355	0.468089
	C81	C	0.890475	0.043938	0.443793
	H82	H	0.903689	0.021554	0.450104
	C83	C	0.911468	0.028543	0.476731
	C84	C	0.923924	-0.016286	0.477500
	H85	H	0.909139	-0.038477	0.475045
	C86	C	0.891259	-0.025913	0.495690
	C87	C	0.874289	-0.052607	0.483888
	H88	H	0.878794	-0.029690	0.465459
	C89	C	0.874295	0.041778	0.459051
	H90	H	0.874939	0.018331	0.477581
	C91	C	0.879847	0.051597	0.446841
	H92	H	0.894741	0.051055	0.434215
	C93	C	0.922502	0.031162	0.478210
	H94	H	0.906660	0.046060	0.476467
	C95	C	0.928900	0.008847	0.478704
	H96	H	0.928732	-0.033842	0.477213
	C97	C	0.885071	-0.044978	0.503400
	H98	H	0.897870	-0.015538	0.500309
	C99	C	0.876354	-0.058206	0.497691
	H100	H	0.867753	-0.063436	0.479312
	H101	H	0.865934	0.046618	0.461368
	H102	H	0.926326	0.050682	0.478967
	H103	H	0.887099	-0.049976	0.513838
	C104	C	0.874574	0.068893	0.436703
	O105	O	0.876888	0.067876	0.424241
	N106	N	0.867071	0.086167	0.442968
	H107	H	0.867561	0.090732	0.453234
	C108	C	0.940787	0.012840	0.480322
	O109	O	0.945707	0.032926	0.476345
	N110	N	0.945540	-0.007274	0.487596
	H111	H	0.940817	-0.021875	0.492347
	C112	C	0.869368	-0.078551	0.505757
	O113	O	0.866265	-0.099022	0.500509
	N114	N	0.866637	-0.071657	0.519640
	H115	H	0.868757	-0.053235	0.522995
	C116	C	0.152594	0.087771	0.586262
	C117	C	0.155858	0.079771	0.599279
	C118	C	0.163489	0.094643	0.606274
	C119	C	0.168103	0.118458	0.600023
	C120	C	0.164783	0.126750	0.586816
	C121	C	0.157093	0.111325	0.580225
	H122	H	0.152348	0.061685	0.604006
	H123	H	0.154558	0.117570	0.570202
	C124	C	0.175970	0.133733	0.606864
	C125	C	0.179296	0.125437	0.620069
	C126	C	0.187102	0.140666	0.626558
	C127	C	0.191785	0.163880	0.620357
	C128	C	0.188457	0.171996	0.607392
	C129	C	0.180645	0.157432	0.600556
	H130	H	0.189649	0.134429	0.636588
	H131	H	0.192020	0.189934	0.602578
	C132	C	0.169565	0.150847	0.580746
	C133	C	0.177109	0.165405	0.587263
	H134	H	0.166997	0.157151	0.570749
	H135	H	0.180620	0.183460	0.582512
	C136	C	0.166947	0.086819	0.619632
	C137	C	0.174447	0.101458	0.626189
	H138	H	0.163398	0.068821	0.624407
	H139	H	0.176950	0.095268	0.636242
	N140	N	0.141409	0.078462	0.567334
	C141	C	0.144659	0.071400	0.579086
	H142	H	0.142039	0.052677	0.584257
	N143	N	0.203227	0.172873	0.639116
	C144	C	0.200133	0.179460	0.627188
	H145	H	0.203633	0.196963	0.621532
	C146	C	0.149639	0.883170	0.453207
	C147	C	0.151926	0.891304	0.439298
	C148	C	0.159104	0.877569	0.430225
	C149	C	0.164229	0.854795	0.435208
	C150	C	0.161875	0.846341	0.449314
	C151	C	0.154633	0.860632	0.458009
	H152	H	0.148081	0.908648	0.435525
	H153	H	0.152860	0.854316	0.468746
	C154	C	0.171678	0.840766	0.426234
	C155	C	0.174082	0.849304	0.412151
	C156	C	0.181537	0.835413	0.403562
	C157	C	0.186741	0.813292	0.408482
	C158	C	0.184293	0.804873	0.422315
	C159	C	0.176876	0.818142	0.431262
	H160	H	0.183408	0.841871	0.392868
	H161	H	0.188263	0.787776	0.426161
	C162	C	0.167149	0.823305	0.454070
	C163	C	0.174279	0.809915	0.445498
	H164	H	0.165297	0.816868	0.464764
	H165	H	0.178174	0.792657	0.449294
	C166	C	0.161606	0.885600	0.415939
	C167	C	0.168716	0.872167	0.407355
	H168	H	0.157673	0.902784	0.412122
	H169	H	0.170515	0.878501	0.396635
	N170	N	0.140045	0.891282	0.475350
	C171	C	0.142254	0.898352	0.462635
	H172	H	0.138806	0.916086	0.458295
	N173	N	0.197221	0.806445	0.386784
	C174	C	0.194770	0.799255	0.399435
	H175	H	0.198662	0.782476	0.404103
	C176	C	0.849815	0.902872	0.549640
	C177	C	0.847422	0.910385	0.563569
	C178	C	0.839963	0.895804	0.572372
	C179	C	0.834653	0.872800	0.567083
	C180	C	0.837117	0.864970	0.552958
	C181	C	0.844644	0.880091	0.544542
	H182	H	0.851405	0.927910	0.567571
	H183	H	0.846501	0.874252	0.533790
	C184	C	0.826908	0.857934	0.575771
	C185	C	0.824391	0.865847	0.589872
	C186	C	0.816640	0.851144	0.598170
	C187	C	0.811244	0.828815	0.592936
	C188	C	0.813804	0.821013	0.579090
	C189	C	0.821519	0.835094	0.570430
	H190	H	0.814683	0.857123	0.608876
	H191	H	0.809688	0.803756	0.575005
	C192	C	0.831653	0.841685	0.547890
	C193	C	0.824238	0.827498	0.556186
	H194	H	0.833593	0.835717	0.537186
	H195	H	0.820200	0.810068	0.552159
	C196	C	0.837347	0.903183	0.586674
	C197	C	0.829956	0.888944	0.594985
	H198	H	0.841425	0.920531	0.590726
	H199	H	0.828074	0.894797	0.605721
	N200	N	0.859804	0.912408	0.527766
	C201	C	0.857483	0.918952	0.540483
	H202	H	0.861034	0.936881	0.545021
	N203	N	0.800380	0.820408	0.614348
	C204	C	0.802902	0.813918	0.601666
	H205	H	0.798880	0.797024	0.596751
	C206	C	0.848870	0.107408	0.417095
	C207	C	0.845633	0.098503	0.404140
	C208	C	0.838093	0.112128	0.396931
	C209	C	0.833548	0.135586	0.402890
	C210	C	0.836840	0.144797	0.416034
	C211	C	0.844435	0.130603	0.422850
	H212	H	0.849095	0.080697	0.399631
	H213	H	0.846951	0.137548	0.432823
	C214	C	0.825782	0.149607	0.395819
	C215	C	0.822487	0.140393	0.382677
	C216	C	0.814785	0.154398	0.375956
	C217	C	0.810181	0.177268	0.381858
	C218	C	0.813476	0.186292	0.394764
	C219	C	0.821182	0.172959	0.401830
	H220	H	0.812263	0.147459	0.365971
	H221	H	0.809971	0.203968	0.399350
	C222	C	0.832129	0.168511	0.421806
	C223	C	0.824684	0.181874	0.415068
	H224	H	0.834673	0.175514	0.431756
	H225	H	0.821228	0.199662	0.419595
	C226	C	0.834666	0.103359	0.383630
	C227	C	0.827261	0.116797	0.376857
	H228	H	0.838162	0.085635	0.379078
	H229	H	0.824779	0.109912	0.366851
	N230	N	0.859911	0.100175	0.436223
	C231	C	0.856719	0.092341	0.424491
	H232	H	0.859298	0.073776	0.419531
	N233	N	0.798894	0.184092	0.362890
	C234	C	0.801951	0.191555	0.374769
	H235	H	0.798543	0.208930	0.380157
	N236	N	0.251072	0.244565	0.673559
	C237	C	0.253820	0.245857	0.687711
	C238	C	0.257533	0.258837	0.663025
	C239	C	0.241976	0.228884	0.669807
	C240	C	0.268825	0.260121	0.663110
	C241	C	0.252622	0.223518	0.696489
	C242	C	0.242149	0.215671	0.656920
	C243	C	0.252782	0.271646	0.652141
	C244	C	0.275135	0.273506	0.652634
	H245	H	0.272631	0.249958	0.671299
	C246	C	0.257872	0.269590	0.693254
	C247	C	0.255278	0.224931	0.710313
	H248	H	0.249787	0.204845	0.692294
	C249	C	0.232601	0.226188	0.678806
	C250	C	0.233261	0.200649	0.653112
	H251	H	0.249402	0.216849	0.649979
	C252	C	0.259097	0.285076	0.641709
	H253	H	0.244085	0.271201	0.651960
	C254	C	0.270350	0.286273	0.641800
	H255	H	0.283838	0.273392	0.652655
	C256	C	0.260507	0.270976	0.707074
	H257	H	0.258813	0.287116	0.686717
	C258	C	0.259180	0.248769	0.715833
	H259	H	0.254588	0.207270	0.716771
	C260	C	0.223728	0.211056	0.675005
	H261	H	0.232227	0.236324	0.688750
	C262	C	0.223872	0.198446	0.662032
	H263	H	0.233639	0.190077	0.643283
	H264	H	0.255376	0.294828	0.633295
	H265	H	0.263623	0.289378	0.711296
	H266	H	0.216518	0.208936	0.681999
	C267	C	0.276823	0.300711	0.630195
	O268	O	0.273879	0.301396	0.618418
	N269	N	0.285943	0.314916	0.634197
	H270	H	0.287260	0.316503	0.644481
	C271	C	0.261966	0.251313	0.730747
	O272	O	0.269502	0.265176	0.734100
	N273	N	0.254676	0.238387	0.740444
	H274	H	0.247905	0.229414	0.737096
	C275	C	0.214229	0.182255	0.658075
	O276	O	0.209138	0.167463	0.666227
	N277	N	0.211108	0.187758	0.644698
	H278	H	0.214964	0.202860	0.639163
	N279	N	0.244644	0.746462	0.340772
	C280	C	0.247275	0.746760	0.326083
	C281	C	0.251270	0.732784	0.349761
	C282	C	0.235477	0.759951	0.346676
	C283	C	0.262566	0.734545	0.347825
	C284	C	0.245691	0.769341	0.317996
	C285	C	0.235721	0.772184	0.359794
	C286	C	0.246645	0.717647	0.361021
	C287	C	0.269002	0.721999	0.356961
	H288	H	0.266251	0.746460	0.339291
	C289	C	0.251575	0.724404	0.319277
	C290	C	0.248155	0.769413	0.303629
	H291	H	0.242691	0.787056	0.323116
	C292	C	0.225973	0.761362	0.339678
	C293	C	0.226783	0.785027	0.365749
	H294	H	0.243062	0.771964	0.365216
	C295	C	0.253085	0.704979	0.370067
	H296	H	0.237949	0.715751	0.362600
	C297	C	0.264350	0.706934	0.368213
	H298	H	0.277679	0.724630	0.355540
	C299	C	0.254005	0.724488	0.304914
	H300	H	0.252850	0.706739	0.325277
	C301	C	0.252245	0.746861	0.296859
	H302	H	0.247156	0.787296	0.297671
	C303	C	0.217040	0.774289	0.345638
	H304	H	0.225546	0.751923	0.329608
	C305	C	0.217261	0.785908	0.358837
	H306	H	0.227228	0.794924	0.375708
	H307	H	0.249433	0.693423	0.378780
	H308	H	0.257287	0.707113	0.299715
	H309	H	0.209724	0.775406	0.340191
	C310	C	0.270844	0.693373	0.378590
	O311	O	0.267254	0.689086	0.390500
	N312	N	0.280915	0.684500	0.373413
	H313	H	0.282994	0.685185	0.363006
	C314	C	0.254745	0.745841	0.281335
	O315	O	0.262278	0.733698	0.276098
	N316	N	0.247200	0.758000	0.273494
	H317	H	0.240453	0.765363	0.278475
	C318	C	0.207565	0.799739	0.365159
	O319	O	0.202089	0.813626	0.358368
	N320	N	0.204906	0.793125	0.379148
	H321	H	0.208988	0.778505	0.383564
	N322	N	0.751771	0.754416	0.658526
	C323	C	0.749052	0.753372	0.673190
	C324	C	0.744999	0.741135	0.649181
	C325	C	0.761140	0.769022	0.653034
	C326	C	0.733714	0.741317	0.651342
	C327	C	0.750785	0.775486	0.681729
	C328	C	0.761129	0.782517	0.640238
	C329	C	0.749460	0.727967	0.637368
	C330	C	0.727135	0.729133	0.641924
	H331	H	0.730139	0.751731	0.660293
	C332	C	0.744498	0.730149	0.679510
	C333	C	0.748164	0.774330	0.696054
	H334	H	0.754014	0.793807	0.676990
	C335	C	0.770624	0.770306	0.660148
	C336	C	0.770284	0.796362	0.634666
	H337	H	0.753806	0.782461	0.634769
	C338	C	0.742877	0.715738	0.627999
	H339	H	0.758140	0.727244	0.635599
	C340	C	0.731632	0.716112	0.630116
	H341	H	0.718463	0.730426	0.643541
	C342	C	0.741905	0.729013	0.693830
	H343	H	0.743135	0.712802	0.673158
	C344	C	0.743769	0.750974	0.702327
	H345	H	0.749272	0.791862	0.702365
	C346	C	0.779773	0.784250	0.654579
	H347	H	0.770859	0.759965	0.669989
	C348	C	0.779786	0.797065	0.641665
	H349	H	0.770039	0.807164	0.624951
	H350	H	0.746384	0.705753	0.618846
	H351	H	0.738405	0.710997	0.698650
	H352	H	0.787078	0.785245	0.660106
	C353	C	0.724906	0.703138	0.619492
	O354	O	0.727979	0.702310	0.607217
	N355	N	0.715339	0.690418	0.624869
	H356	H	0.713814	0.688664	0.635360
	C357	C	0.741017	0.748708	0.717774
	O358	O	0.733270	0.735659	0.722596
	N359	N	0.748564	0.760859	0.726043
	H360	H	0.755481	0.768995	0.721383
	C361	C	0.789725	0.811879	0.635719
	O362	O	0.795324	0.825665	0.642815
	N363	N	0.792422	0.806249	0.621671
	H364	H	0.788143	0.791735	0.616962
	N365	N	0.751785	0.248588	0.326766
	C366	C	0.749148	0.248815	0.312561
	C367	C	0.745424	0.262947	0.336969
	C368	C	0.760748	0.234182	0.330891
	C369	C	0.734126	0.262515	0.337033
	C370	C	0.750263	0.226152	0.304138
	C371	C	0.760433	0.221983	0.344072
	C372	C	0.750288	0.277565	0.347379
	C373	C	0.727914	0.275983	0.347219
	H374	H	0.730251	0.250965	0.329196
	C375	C	0.745316	0.271805	0.306594
	C376	C	0.747807	0.226600	0.290225
	H377	H	0.752895	0.207993	0.308672
	C378	C	0.770125	0.231770	0.321994
	C379	C	0.769176	0.208147	0.348237
	H380	H	0.753180	0.222994	0.350967
	C381	C	0.744071	0.291151	0.357485
	H382	H	0.758993	0.278405	0.347432
	C383	C	0.732805	0.290642	0.357569
	H384	H	0.719209	0.274430	0.347331
	C385	C	0.742888	0.272233	0.292682
	H386	H	0.744409	0.289544	0.312863
	C387	C	0.744187	0.249760	0.284259
	H388	H	0.748440	0.208685	0.284043
	C389	C	0.778853	0.217834	0.326156
	H390	H	0.770621	0.241193	0.311837
	C391	C	0.778564	0.206191	0.339397
	H392	H	0.768677	0.198298	0.358294
	H393	H	0.747896	0.302351	0.365513
	H394	H	0.739968	0.290089	0.288124
	H395	H	0.786062	0.215919	0.319238
	C396	C	0.726511	0.305364	0.368890
	O397	O	0.729954	0.309081	0.380272
	N398	N	0.716860	0.316005	0.365107
	H399	H	0.715013	0.315486	0.354983
	C400	C	0.741719	0.251335	0.269199
	O401	O	0.734423	0.264390	0.265387
	N402	N	0.749035	0.238522	0.259932
	H403	H	0.755615	0.230272	0.263655
	C404	C	0.788048	0.191233	0.343714
	O405	O	0.793050	0.176479	0.335857
	N406	N	0.791151	0.197822	0.357022
	H407	H	0.787416	0.212873	0.362269
	C408	C	0.254788	0.240314	0.851207
	C409	C	0.261886	0.254855	0.841846
	C410	C	0.261278	0.252805	0.827385
	C411	C	0.253232	0.235618	0.822001
	C412	C	0.245994	0.220774	0.831467
	C413	C	0.246925	0.223354	0.845847
	H414	H	0.267938	0.268031	0.845953
	H415	H	0.241419	0.212193	0.853060
	C416	C	0.252394	0.233416	0.807339
	C417	C	0.259624	0.248290	0.797879
	C418	C	0.258614	0.245937	0.783507
	C419	C	0.250617	0.229383	0.778152
	C420	C	0.243537	0.214759	0.787500
	C421	C	0.244285	0.216417	0.801956
	H422	H	0.264085	0.257242	0.776293
	H423	H	0.237359	0.201933	0.783426
	C424	C	0.237937	0.203652	0.825753
	C425	C	0.237118	0.201599	0.811740
	H426	H	0.232466	0.192374	0.832960
	H427	H	0.230984	0.188642	0.807656
	C428	C	0.268485	0.267509	0.817601
	C429	C	0.267708	0.265335	0.803586
	H430	H	0.274605	0.280502	0.821693
	H431	H	0.273196	0.276562	0.796371
	N432	N	0.249489	0.229474	0.875154
	C433	C	0.255592	0.243160	0.866382
	H434	H	0.261853	0.257156	0.869643
	N435	N	0.256105	0.240229	0.754280
	C436	C	0.249568	0.227561	0.762989
	H437	H	0.242937	0.214913	0.759516
	C438	C	0.308356	0.354278	0.617520
	C439	C	0.317930	0.366870	0.621364
	C440	C	0.324937	0.380482	0.611558
	C441	C	0.322283	0.381680	0.597352
	C442	C	0.312546	0.368956	0.593405
	C443	C	0.305806	0.355506	0.603532
	H444	H	0.319938	0.365971	0.632141
	H445	H	0.298410	0.345804	0.600546
	C446	C	0.329270	0.395428	0.587211
	C447	C	0.339027	0.408120	0.591123
	C448	C	0.345784	0.421503	0.580961
	C449	C	0.343167	0.422809	0.567000
	C450	C	0.333546	0.410348	0.563232
	C451	C	0.326575	0.396684	0.573026
	H452	H	0.353185	0.431219	0.583880
	H453	H	0.331477	0.411423	0.552479
	C454	C	0.310032	0.370511	0.579026
	C455	C	0.316693	0.383714	0.569342
	H456	H	0.302624	0.360847	0.576084
	H457	H	0.314658	0.384710	0.558574
	C458	C	0.334820	0.393485	0.615220
	C459	C	0.341511	0.406587	0.605517
	H460	H	0.336841	0.392599	0.625997
	H461	H	0.348911	0.416259	0.608474
	N462	N	0.292507	0.327839	0.624394
	C463	C	0.301078	0.339968	0.627954
	H464	H	0.303341	0.340129	0.638787
	N465	N	0.359285	0.447905	0.559043
	C466	C	0.350247	0.436952	0.556302
	H467	H	0.347438	0.436910	0.545722
	C468	C	0.338346	0.595740	0.434085
	C469	C	0.327430	0.599654	0.438121
	C470	C	0.320555	0.611236	0.429093
	C471	C	0.324693	0.619074	0.415412
	C472	C	0.335774	0.615027	0.411221
	C473	C	0.342386	0.603551	0.420637
	H474	H	0.324269	0.593715	0.448494
	H475	H	0.350817	0.600508	0.417531
	C476	C	0.317836	0.630870	0.406058
	C477	C	0.306789	0.635128	0.410331
	C478	C	0.300212	0.646966	0.401025
	C479	C	0.304179	0.654603	0.387520
	C480	C	0.315031	0.650212	0.383323
	C481	C	0.321934	0.638617	0.392343
	H482	H	0.291830	0.650336	0.404285
	H483	H	0.318138	0.656114	0.372924
	C484	C	0.339699	0.623027	0.397336
	C485	C	0.333126	0.634172	0.388365
	H486	H	0.348108	0.619893	0.394168
	H487	H	0.336253	0.640030	0.377963
	C488	C	0.309365	0.615635	0.433096
	C489	C	0.302828	0.627039	0.424185
	H490	H	0.306231	0.609677	0.443479
	H491	H	0.294428	0.630276	0.427360
	N492	N	0.355452	0.581072	0.441177
	C493	C	0.345298	0.583598	0.443959
	H494	H	0.341357	0.577022	0.454021
	N495	N	0.287375	0.672869	0.382251
	C496	C	0.297025	0.667196	0.378020
	H497	H	0.300355	0.671742	0.367378
	C498	C	0.242140	0.768863	0.237011
	C499	C	0.234955	0.783488	0.229637
	C500	C	0.235200	0.782826	0.215042
	C501	C	0.242887	0.766841	0.207468
	C502	C	0.250227	0.751978	0.214913
	C503	C	0.249733	0.753339	0.229500
	H504	H	0.229091	0.795534	0.235376
	H505	H	0.255286	0.742044	0.235192
	C506	C	0.243195	0.765624	0.192638
	C507	C	0.235850	0.780472	0.185195
	C508	C	0.236257	0.778878	0.170619
	C509	C	0.243687	0.762890	0.163118
	C510	C	0.250890	0.748326	0.170494
	C511	C	0.250807	0.749428	0.185069
	H512	H	0.230665	0.790053	0.164948
	H513	H	0.256612	0.735905	0.164737
	C514	C	0.257873	0.735963	0.207015
	C515	C	0.258139	0.734718	0.192842
	H516	H	0.263448	0.724746	0.212697
	H517	H	0.263934	0.722485	0.187093
	C518	C	0.227916	0.797681	0.207265
	C519	C	0.228234	0.796582	0.193088
	H520	H	0.222108	0.809881	0.213010
	H521	H	0.222683	0.807872	0.187409
	N522	N	0.248261	0.757168	0.259346
	C523	C	0.241582	0.769615	0.252385
	H524	H	0.235173	0.781316	0.257598
	N525	N	0.237763	0.775122	0.140785
	C526	C	0.243927	0.761158	0.147770
	H527	H	0.249834	0.747820	0.142755
	C528	C	0.656693	0.595618	0.565043
	C529	C	0.666722	0.606659	0.559985
	C530	C	0.673821	0.618706	0.568910
	C531	C	0.670833	0.619746	0.583526
	C532	C	0.660653	0.608520	0.588745
	C533	C	0.653783	0.596733	0.579421
	H534	H	0.669014	0.605720	0.548901
	H535	H	0.646063	0.588112	0.583329
	C536	C	0.677953	0.631805	0.592803
	C537	C	0.688118	0.643043	0.587549
	C538	C	0.694992	0.654815	0.596842
	C539	C	0.692165	0.655778	0.611244
	C540	C	0.682168	0.644658	0.616373
	C541	C	0.675014	0.632754	0.607437
	H542	H	0.702714	0.663381	0.592860
	H543	H	0.679946	0.645359	0.627474
	C544	C	0.657881	0.609797	0.603543
	C545	C	0.664699	0.621279	0.612417
	H546	H	0.650155	0.601257	0.607489
	H547	H	0.662455	0.621993	0.623516
	C548	C	0.684126	0.630181	0.563901
	C549	C	0.690916	0.641775	0.572760
	H550	H	0.686379	0.629366	0.552806
	H551	H	0.698646	0.650323	0.568826
	N552	N	0.640152	0.573367	0.559163
	C553	C	0.649523	0.583037	0.555223
	H554	H	0.652581	0.583129	0.544215
	N555	N	0.708585	0.679064	0.615982
	C556	C	0.699616	0.668307	0.620750
	H557	H	0.697133	0.668057	0.631938
	C558	C	0.752933	0.769886	0.762917
	C559	C	0.760283	0.783941	0.770818
	C560	C	0.759609	0.782499	0.785416
	C561	C	0.751292	0.766320	0.792446
	C562	C	0.743783	0.752038	0.784463
	C563	C	0.744732	0.754145	0.769894
	H564	H	0.766617	0.796147	0.765490
	H565	H	0.739051	0.743284	0.763797
	C566	C	0.750523	0.764335	0.807271
	C567	C	0.758044	0.778571	0.815255
	C568	C	0.757181	0.776196	0.829817
	C569	C	0.749111	0.760034	0.836778
	C570	C	0.741731	0.746101	0.828870
	C571	C	0.742266	0.747965	0.814291
	H572	H	0.762903	0.786892	0.835902
	H573	H	0.735516	0.733540	0.834211
	C574	C	0.735491	0.735820	0.791814
	C575	C	0.734777	0.733859	0.805981
	H576	H	0.729792	0.725045	0.785722
	H577	H	0.728497	0.721491	0.811318
	C578	C	0.767056	0.796734	0.793733
	C579	C	0.766307	0.794882	0.807905
	H580	H	0.773347	0.809076	0.788403
	H581	H	0.771991	0.805709	0.813993
	N582	N	0.747159	0.759302	0.740155
	C583	C	0.753917	0.771455	0.747553
	H584	H	0.760729	0.783379	0.742750
	N585	N	0.754801	0.770454	0.859605
	C586	C	0.748383	0.757390	0.852111
	H587	H	0.741908	0.744127	0.856655
	C588	C	0.753944	0.228103	0.222467
	C589	C	0.760865	0.212952	0.213682
	C590	C	0.760637	0.214051	0.199137
	C591	C	0.753244	0.231037	0.193076
	C592	C	0.746178	0.246452	0.201962
	C593	C	0.746641	0.244627	0.216449
	H594	H	0.766503	0.200136	0.218269
	H595	H	0.741293	0.256333	0.223231
	C596	C	0.752953	0.232679	0.178313
	C597	C	0.760018	0.217262	0.169427
	C598	C	0.759626	0.219262	0.154937
	C599	C	0.752482	0.236205	0.148906
	C600	C	0.745559	0.251340	0.157696
	C601	C	0.745635	0.249860	0.172246
	H602	H	0.765003	0.207650	0.148166
	H603	H	0.740061	0.264498	0.153070
	C604	C	0.738828	0.263478	0.195572
	C605	C	0.738581	0.265131	0.181458
	H606	H	0.733463	0.275123	0.202350
	H607	H	0.733011	0.278118	0.176851
	C608	C	0.767648	0.198662	0.189928
	C609	C	0.767345	0.200168	0.175818
	H610	H	0.773236	0.185718	0.194529
	H611	H	0.772688	0.188463	0.169048
	N612	N	0.748014	0.239817	0.245983
	C613	C	0.754464	0.226841	0.237734
	H614	H	0.760665	0.214382	0.241706
	N615	N	0.758101	0.223822	0.125401
	C616	C	0.752244	0.238329	0.133617
	H617	H	0.746600	0.252464	0.129772
	C618	C	0.660866	0.419072	0.432280
	C619	C	0.671503	0.413216	0.434934
	C620	C	0.678223	0.399758	0.425181
	C621	C	0.674221	0.391985	0.412172
	C622	C	0.663430	0.398013	0.409381
	C623	C	0.656957	0.411321	0.419490
	H624	H	0.674559	0.419103	0.444794
	H625	H	0.648742	0.415864	0.417449
	C626	C	0.680925	0.378312	0.402097
	C627	C	0.691676	0.372088	0.404970
	C628	C	0.698104	0.358468	0.394968
	C629	C	0.694276	0.350930	0.382100
	C630	C	0.683718	0.357226	0.379282
	C631	C	0.676967	0.370645	0.389044
	H632	H	0.706258	0.353618	0.397160
	H633	H	0.680717	0.351407	0.369381
	C634	C	0.659638	0.390031	0.396143
	C635	C	0.666069	0.377089	0.386477
	H636	H	0.651449	0.394665	0.394041
	H637	H	0.663049	0.371282	0.376582
	C638	C	0.689116	0.393338	0.427773
	C639	C	0.695501	0.380136	0.418177
	H640	H	0.692147	0.399239	0.437648
	H641	H	0.703675	0.375391	0.420295
	N642	N	0.644084	0.437404	0.441388
	C643	C	0.654043	0.433084	0.442884
	H644	H	0.657898	0.439504	0.452311
	N645	N	0.710591	0.329178	0.374754
	C646	C	0.701257	0.336553	0.371791
	H647	H	0.698055	0.332157	0.361666
	N648	N	0.249740	0.256310	0.955534
	C649	C	0.250234	0.256394	0.940651
	C650	C	0.251006	0.280670	0.962918
	C651	C	0.247884	0.231774	0.962856
	C652	C	0.247730	0.304710	0.957412
	C653	C	0.242889	0.240924	0.933421
	C654	C	0.241453	0.230165	0.975458
	C655	C	0.255643	0.281518	0.975817
	C656	C	0.248962	0.328526	0.964543
	H657	H	0.244144	0.304670	0.947466
	C658	C	0.258005	0.272003	0.932819
	C659	C	0.243242	0.241233	0.918907
	H660	H	0.236723	0.229141	0.939324
	C661	C	0.252401	0.208329	0.957524
	C662	C	0.239780	0.206150	0.982562
	H663	H	0.237609	0.247779	0.979572
	C664	C	0.256787	0.305326	0.982985
	H665	H	0.258560	0.263489	0.980144
	C666	C	0.253325	0.329143	0.977590
	H667	H	0.246703	0.346792	0.959765
	C668	C	0.258365	0.272219	0.918307
	H669	H	0.263821	0.283855	0.938183
	C670	C	0.251033	0.256786	0.911131
	H671	H	0.237235	0.229909	0.913599
	C672	C	0.250721	0.184342	0.964639
	H673	H	0.257346	0.209110	0.947784
	C674	C	0.244529	0.183002	0.977391
	H675	H	0.234754	0.205020	0.992251
	H676	H	0.260439	0.305772	0.992906
	H677	H	0.264351	0.284445	0.912324
	H678	H	0.254099	0.166424	0.960183
	C679	C	0.254857	0.354430	0.985637
	O680	O	0.262187	0.357663	0.993222
	N681	N	0.247240	0.373726	0.983706
	H682	H	0.240476	0.368658	0.978862
	C683	C	0.251633	0.257770	0.895448
	O684	O	0.254054	0.278164	0.889123
	N685	N	0.250103	0.233085	0.889049
	H686	H	0.248479	0.216640	0.895060
	C687	C	0.242594	0.157348	0.985302
	O688	O	0.233988	0.151775	0.991498
	N689	N	0.251623	0.141357	0.985002
	H690	H	0.259001	0.149890	0.982246
	N691	N	0.391195	0.517628	0.494921
	C692	C	0.402533	0.514422	0.495189
	C693	C	0.383941	0.507327	0.505934
	C694	C	0.386881	0.531029	0.483580
	C695	C	0.386517	0.508343	0.519925
	C696	C	0.409924	0.533902	0.489581
	C697	C	0.378370	0.548498	0.486048
	C698	C	0.373848	0.496286	0.503023
	C699	C	0.379273	0.498672	0.530594
	H700	H	0.394161	0.517357	0.522407
	C701	C	0.406659	0.491740	0.501120
	C702	C	0.420993	0.530885	0.489961
	H703	H	0.406920	0.551770	0.485175
	C704	C	0.390847	0.526998	0.469725
	C705	C	0.373807	0.560911	0.475060
	H706	H	0.375443	0.552481	0.496706
	C707	C	0.366628	0.486653	0.513681
	H708	H	0.371710	0.495065	0.492310
	C709	C	0.369233	0.487592	0.527602
	H710	H	0.381293	0.500406	0.541340
	C711	C	0.417723	0.488776	0.501515
	H712	H	0.401153	0.476210	0.505302
	C713	C	0.425047	0.508228	0.495915
	H714	H	0.426540	0.546479	0.485925
	C715	C	0.386228	0.539346	0.458732
	H716	H	0.397427	0.513681	0.467593
	C717	C	0.377504	0.556013	0.461215
	H718	H	0.367459	0.574874	0.477250
	H719	H	0.358833	0.478251	0.511342
	H720	H	0.420848	0.471258	0.506166
	H721	H	0.389265	0.536058	0.448032
	C722	C	0.361090	0.476953	0.538671
	O723	O	0.351516	0.480324	0.537992
	N724	N	0.365349	0.461210	0.548839
	H725	H	0.373474	0.459792	0.549082
	C726	C	0.436938	0.504366	0.496538
	O727	O	0.440559	0.493535	0.506393
	N728	N	0.443137	0.512025	0.484383
	H729	H	0.439338	0.515139	0.475504
	C730	C	0.372456	0.568603	0.449175
	O731	O	0.377646	0.575481	0.438555
	N732	N	0.361208	0.569514	0.450912
	H733	H	0.357309	0.559967	0.459211
	N734	N	0.234443	0.756276	0.060262
	C735	C	0.235472	0.754467	0.074923
	C736	C	0.234715	0.732837	0.051915
	C737	C	0.232711	0.781521	0.054207
	C738	C	0.230828	0.708295	0.057466
	C739	C	0.228768	0.768840	0.084363
	C740	C	0.225788	0.784215	0.043407
	C741	C	0.238775	0.733564	0.037897
	C742	C	0.230959	0.685454	0.049322
	H743	H	0.227438	0.707307	0.068157
	C744	C	0.243159	0.738260	0.080338
	C745	C	0.229706	0.767051	0.098680
	H746	H	0.222630	0.780964	0.080364
	C747	C	0.237833	0.804591	0.059074
	C748	C	0.224191	0.808948	0.037569
	H749	H	0.221474	0.766882	0.039757
	C750	C	0.238836	0.710741	0.029738
	H751	H	0.241960	0.752109	0.033389
	C752	C	0.234975	0.686380	0.035342
	H753	H	0.227658	0.666860	0.053668
	C754	C	0.244121	0.736606	0.094656
	H755	H	0.248448	0.727148	0.073226
	C756	C	0.237471	0.751077	0.104035
	H757	H	0.224164	0.777555	0.105749
	C758	C	0.236223	0.829298	0.053230
	H759	H	0.243155	0.802967	0.067454
	C760	C	0.229513	0.831764	0.042225
	H761	H	0.218762	0.810923	0.029307
	H762	H	0.241874	0.711463	0.018880
	H763	H	0.250058	0.723998	0.098778
	H764	H	0.240033	0.846893	0.057391
	C765	C	0.235095	0.662051	0.026336
	O766	O	0.232347	0.662321	0.014470
	N767	N	0.239604	0.640015	0.032285
	H768	H	0.242949	0.642137	0.041587
	C769	C	0.238751	0.748740	0.119438
	O770	O	0.241195	0.728025	0.124626
	N771	N	0.237829	0.772727	0.126746
	H772	H	0.236208	0.789565	0.121549
	C773	C	0.227577	0.858200	0.035767
	O774	O	0.218757	0.864325	0.032426
	N775	N	0.236778	0.874821	0.033845
	H776	H	0.244106	0.867216	0.035221
	N777	N	0.608441	0.508544	0.499214
	C778	C	0.597137	0.512671	0.501094
	C779	C	0.615569	0.518045	0.509239
	C780	C	0.612807	0.494248	0.487414
	C781	C	0.612572	0.517447	0.523610
	C782	C	0.589633	0.493643	0.496669
	C783	C	0.620845	0.475692	0.488931
	C784	C	0.625976	0.527734	0.504917
	C785	C	0.619727	0.526136	0.533288
	H786	H	0.604668	0.509472	0.527169
	C787	C	0.593158	0.535779	0.507498
	C788	C	0.578591	0.497487	0.498657
	H789	H	0.592515	0.475446	0.491947
	C790	C	0.609333	0.498383	0.474025
	C791	C	0.625421	0.462253	0.477449
	H792	H	0.623377	0.471658	0.499258
	C793	C	0.633104	0.536389	0.514586
	H794	H	0.628440	0.528622	0.493888
	C795	C	0.630094	0.535803	0.528894
	H796	H	0.617365	0.524690	0.544333
	C797	C	0.582116	0.539574	0.509495
	H798	H	0.598766	0.550950	0.510804
	C799	C	0.574681	0.520563	0.505068
	H800	H	0.572941	0.482191	0.495570
	C801	C	0.613971	0.485014	0.462527
	H802	H	0.603122	0.512542	0.472640
	C803	C	0.622225	0.467186	0.464024
	H804	H	0.631371	0.447463	0.478951
	H805	H	0.641146	0.543710	0.511157
	H806	H	0.579087	0.557379	0.514526
	H807	H	0.611315	0.488366	0.452181
	C808	C	0.638182	0.545178	0.538847
	O809	O	0.647684	0.540500	0.536792
	N810	N	0.634041	0.561354	0.549683
	H811	H	0.625959	0.563964	0.551072
	C812	C	0.562820	0.525203	0.507433
	O813	O	0.558975	0.535514	0.517987
	N814	N	0.556812	0.518908	0.496045
	H815	H	0.560735	0.513668	0.486863
	C816	C	0.627275	0.453378	0.451429
	O817	O	0.622221	0.447076	0.441543
	N818	N	0.638415	0.450555	0.451694
	H819	H	0.642346	0.459772	0.459350
	N820	N	0.755052	0.745257	0.940071
	C821	C	0.754342	0.744838	0.925314
	C822	C	0.753261	0.721328	0.947968
	C823	C	0.757801	0.769623	0.946702
	C824	C	0.755769	0.696597	0.942040
	C825	C	0.761989	0.758779	0.916419
	C826	C	0.764457	0.770359	0.957908
	C827	C	0.748869	0.721628	0.961835
	C828	C	0.754063	0.673210	0.949693
	H829	H	0.759142	0.695751	0.931351
	C830	C	0.746049	0.730427	0.919261
	C831	C	0.761404	0.758191	0.902008
	H832	H	0.768557	0.769576	0.920914
	C833	C	0.753989	0.793774	0.942017
	C834	C	0.767048	0.794264	0.964308
	H835	H	0.767776	0.752137	0.961440
	C836	C	0.747248	0.698233	0.969505
	H837	H	0.746532	0.740263	0.966566
	C838	C	0.749972	0.673708	0.963652
	H839	H	0.755737	0.654425	0.944661
	C840	C	0.745459	0.729931	0.904850
	H841	H	0.740011	0.719747	0.925941
	C842	C	0.753081	0.743880	0.896016
	H843	H	0.767622	0.768294	0.895347
	C844	C	0.756592	0.817648	0.948420
	H845	H	0.748889	0.793656	0.933340
	C846	C	0.763015	0.818173	0.959821
	H847	H	0.772262	0.794739	0.972890
	H848	H	0.743800	0.698671	0.980189
	H849	H	0.739063	0.718643	0.900235
	H850	H	0.753792	0.836086	0.944402
	C851	C	0.747999	0.648896	0.972286
	O852	O	0.740714	0.646849	0.981360
	N853	N	0.755184	0.628602	0.969045
	H854	H	0.761968	0.632714	0.962798
	C855	C	0.752214	0.742722	0.880492
	O856	O	0.749188	0.722607	0.874833
	N857	N	0.754262	0.767081	0.873623
	H858	H	0.756372	0.783347	0.879196
	C859	C	0.765992	0.843684	0.966883
	O860	O	0.774922	0.848141	0.970823
	N861	N	0.757595	0.861503	0.968615
	H862	H	0.749997	0.855133	0.966761
	N863	N	0.761100	0.244667	0.044389
	C864	C	0.760279	0.246160	0.059249
	C865	C	0.761263	0.268362	0.036219
	C866	C	0.762036	0.219364	0.037819
	C867	C	0.765779	0.292238	0.041047
	C868	C	0.766655	0.230394	0.067226
	C869	C	0.768732	0.215938	0.025604
	C870	C	0.757021	0.268509	0.023056
	C871	C	0.766094	0.315267	0.033008
	H872	H	0.769305	0.292519	0.051033
	C873	C	0.753128	0.263411	0.066318
	C874	C	0.765924	0.231859	0.081727
	H875	H	0.772383	0.217411	0.061909
	C876	C	0.756294	0.197008	0.043505
	C877	C	0.769467	0.191249	0.019173
	H878	H	0.773511	0.232664	0.021256
	C879	C	0.757410	0.291498	0.014985
	H880	H	0.753342	0.250524	0.019151
	C881	C	0.761913	0.315182	0.019860
	H882	H	0.769866	0.333315	0.036726
	C883	C	0.752368	0.264741	0.080824
	H884	H	0.748086	0.275591	0.060361
	C885	C	0.758692	0.248899	0.088751
	H886	H	0.771226	0.220231	0.087595
	C887	C	0.757037	0.172340	0.037060
	H888	H	0.751141	0.199193	0.052974
	C889	C	0.763493	0.169219	0.024655
	H890	H	0.774694	0.188727	0.009773
	H891	H	0.754235	0.291430	0.004763
	H892	H	0.746846	0.278157	0.086223
	H893	H	0.752708	0.155265	0.041775
	C894	C	0.762282	0.339659	0.010930
	O895	O	0.764957	0.339198	-0.001460
	N896	N	0.758300	0.362207	0.017775
	H897	H	0.755006	0.360434	0.027733
	C898	C	0.757635	0.250943	0.104408
	O899	O	0.755778	0.271857	0.110207
	N900	N	0.758029	0.226606	0.111391
	H901	H	0.759191	0.209679	0.105795
	C902	C	0.764402	0.142851	0.017412
	O903	O	0.772874	0.135627	0.011870
	N904	N	0.754630	0.128269	0.017497
	H905	H	0.747657	0.137981	0.019777
	C906	C	0.243503	0.073922	-0.003704
	C907	C	0.234056	0.057836	-0.002701
	C908	C	0.234016	0.031803	0.002414
	C909	C	0.243806	0.021294	0.006680
	C910	C	0.253434	0.037566	0.005698
	C911	C	0.253094	0.063503	0.000561
	H912	H	0.226628	0.065868	-0.005916
	H913	H	0.260387	0.075904	-0.000172
	C914	C	0.243970	-0.005149	0.011865
	C915	C	0.234338	-0.021411	0.012879
	C916	C	0.234689	-0.047356	0.018009
	C917	C	0.244303	-0.057822	0.022161
	C918	C	0.253754	-0.041746	0.021134
	C919	C	0.253769	-0.015666	0.016096
	H920	H	0.227385	-0.059763	0.018803
	H921	H	0.261195	-0.049700	0.024335
	C922	C	0.263199	0.026478	0.010067
	C923	C	0.263361	0.001186	0.014995
	H924	H	0.270491	0.038887	0.009323
	H925	H	0.270792	-0.006786	0.018224
	C926	C	0.224420	0.014969	0.003559
	C927	C	0.224573	-0.010295	0.008534
	H928	H	0.216986	0.022964	0.000348
	H929	H	0.217270	-0.022674	0.009329
	N930	N	0.251791	0.116277	-0.010048
	C931	C	0.243295	0.101229	-0.009209
	H932	H	0.235568	0.107338	-0.012794
	N933	N	0.236031	-0.100159	0.028859
	C934	C	0.244551	-0.085182	0.027530
	H935	H	0.252388	-0.092132	0.030379
	C936	C	0.244048	0.570352	0.024090
	C937	C	0.250397	0.550028	0.028763
	C938	C	0.250203	0.524692	0.022771
	C939	C	0.243331	0.519288	0.011749
	C940	C	0.236839	0.539863	0.006986
	C941	C	0.237358	0.564955	0.013192
	H942	H	0.255601	0.554099	0.037137
	H943	H	0.232467	0.580656	0.009558
	C944	C	0.242955	0.493638	0.005559
	C945	C	0.249512	0.473116	0.010236
	C946	C	0.249042	0.448070	0.003963
	C947	C	0.242200	0.442559	-0.006759
	C948	C	0.235737	0.462788	-0.011284
	C949	C	0.236019	0.488192	-0.005390
	H950	H	0.254044	0.432455	0.007447
	H951	H	0.230467	0.458682	-0.019583
	C952	C	0.229951	0.533862	-0.004108
	C953	C	0.229542	0.509303	-0.009967
	H954	H	0.225041	0.549545	-0.007699
	H955	H	0.224297	0.505200	-0.018297
	C956	C	0.256713	0.503605	0.027303
	C957	C	0.256401	0.479133	0.021329
	H958	H	0.261950	0.507698	0.035643
	H959	H	0.261372	0.463509	0.024849
	N960	N	0.239161	0.616069	0.025890
	C961	C	0.244386	0.596862	0.030566
	H962	H	0.249384	0.599447	0.039465
	N963	N	0.248074	0.397752	-0.010005
	C964	C	0.241761	0.416060	-0.013223
	H965	H	0.235877	0.412836	-0.021098
	C966	C	0.471477	0.517177	0.492271
	C967	C	0.477259	0.522850	0.504006
	C968	C	0.488546	0.522836	0.503301
	C969	C	0.494335	0.516884	0.490361
	C970	C	0.488503	0.511124	0.478386
	C971	C	0.477215	0.511406	0.479565
	H972	H	0.472853	0.527211	0.513842
	H973	H	0.472759	0.506941	0.470514
	C974	C	0.505812	0.516584	0.489422
	C975	C	0.511635	0.522294	0.501409
	C976	C	0.522913	0.521769	0.500267
	C977	C	0.528657	0.515698	0.487610
	C978	C	0.522894	0.510155	0.475842
	C979	C	0.511606	0.510499	0.476503
	H980	H	0.527357	0.526092	0.509360
	H981	H	0.527285	0.505489	0.466045
	C982	C	0.494550	0.505155	0.465475
	C983	C	0.505520	0.504851	0.464580
	H984	H	0.490105	0.500821	0.456398
	H985	H	0.509914	0.500280	0.454768
	C986	C	0.494627	0.528587	0.515215
	C987	C	0.505597	0.528348	0.514312
	H988	H	0.490227	0.533137	0.525026
	H989	H	0.510047	0.532710	0.523384
	N990	N	0.454058	0.512552	0.482928
	C991	C	0.459585	0.517184	0.493458
	H992	H	0.455817	0.522019	0.503783
	N993	N	0.545909	0.520088	0.497310
	C994	C	0.540532	0.514969	0.486695
	H995	H	0.544535	0.509830	0.476544
	C996	C	0.759601	0.059783	0.006866
	C997	C	0.768209	0.042311	0.006293
	C998	C	0.767097	0.016443	0.001151
	C999	C	0.756971	0.007550	-0.003582
	C1000	C	0.748187	0.025219	-0.003011
	C1001	C	0.749673	0.050932	0.002167
	H1002	H	0.775899	0.049136	0.009844
	H1003	H	0.743027	0.064402	0.002572
	C1004	C	0.755648	-0.018660	-0.008852
	C1005	C	0.764444	-0.036300	-0.009486
	C1006	C	0.762970	-0.061956	-0.014754
	C1007	C	0.753028	-0.070801	-0.019408
	C1008	C	0.744396	-0.053394	-0.018727
	C1009	C	0.745517	-0.027543	-0.013572
	H1010	H	0.769640	-0.075398	-0.015277
	H1011	H	0.736707	-0.060104	-0.022310
	C1012	C	0.738059	0.015746	-0.007840
	C1013	C	0.736787	-0.009326	-0.012845
	H1014	H	0.731408	0.029205	-0.007387
	H1015	H	0.729101	-0.016072	-0.016429
	C1016	C	0.775824	-0.001781	0.000415
	C1017	C	0.774566	-0.026822	-0.004644
	H1018	H	0.783511	0.004978	0.003996
	H1019	H	0.781229	-0.040257	-0.005137
	N1020	N	0.753331	0.103262	0.012685
	C1021	C	0.761030	0.086941	0.012314
	H1022	H	0.768899	0.091793	0.016284
	N1023	N	0.759396	-0.113935	-0.026090
	C1024	C	0.751608	-0.097826	-0.024984
	H1025	H	0.743576	-0.103443	-0.028281
	C1026	C	0.759005	0.559394	-0.021847
	C1027	C	0.765026	0.538344	-0.027513
	C1028	C	0.764348	0.513084	-0.021381
	C1029	C	0.757459	0.508638	-0.009009
	C1030	C	0.751354	0.530000	-0.003169
	C1031	C	0.752207	0.554875	-0.009719
	H1032	H	0.770260	0.541688	-0.036894
	H1033	H	0.747550	0.571132	-0.005351
	C1034	C	0.756678	0.483142	-0.002567
	C1035	C	0.762711	0.461733	-0.008488
	C1036	C	0.761788	0.436802	-0.002019
	C1037	C	0.755135	0.432356	0.010242
	C1038	C	0.749246	0.453499	0.016055
	C1039	C	0.749851	0.478720	0.009862
	H1040	H	0.766324	0.420469	-0.006532
	H1041	H	0.744074	0.450161	0.025490
	C1042	C	0.744506	0.524976	0.009343
	C1043	C	0.743810	0.500644	0.015550
	H1044	H	0.739883	0.541239	0.013749
	H1045	H	0.738613	0.497306	0.024965
	C1046	C	0.770365	0.491150	-0.027102
	C1047	C	0.769567	0.466741	-0.020994
	H1048	H	0.775577	0.494505	-0.036504
	H1049	H	0.774130	0.450425	-0.025453
	N1050	N	0.753945	0.604826	-0.024292
	C1051	C	0.759856	0.585699	-0.028609
	H1052	H	0.765725	0.588089	-0.037650
	N1053	N	0.759140	0.386103	0.011254
	C1054	C	0.754355	0.405947	0.016910
	H1055	H	0.749415	0.404012	0.026809
