data_Molecule from CHK

_cell_length_a		82.774955
_cell_length_b		82.793509
_cell_length_c		81.840702
_cell_angle_alpha	89.997407
_cell_angle_beta	89.998831
_cell_angle_gamma	89.994192
_symmetry_space_group_name_H-M	'P 1'
_symmetry_Int_Tables_number		1

loop_
	_symmetry_equiv_pos_as_xyz
	x,y,z

loop_
	_atom_site_label
	_atom_site_type_symbol
	_atom_site_fract_x
	_atom_site_fract_y
	_atom_site_fract_z
	H0	H	0.909652	0.309218	0.891532
	C1	C	0.914999	0.320985	0.893573
	C2	C	0.924972	0.323223	0.907417
	H3	H	0.905017	0.331677	0.872009
	C4	C	0.912442	0.333396	0.882755
	C5	C	0.919794	0.348635	0.885525
	H6	H	0.934852	0.362674	0.901453
	C7	C	0.929271	0.351011	0.899515
	C8	C	0.932122	0.338600	0.910961
	C9	C	0.938368	0.311861	0.931425
	C10	C	0.928591	0.310333	0.918159
	C11	C	0.945309	0.326822	0.936114
	C12	C	0.955040	0.328361	0.950218
	H13	H	0.957261	0.317721	0.957582
	H14	H	0.968918	0.344256	0.965363
	C15	C	0.961499	0.343054	0.954540
	C16	C	0.958410	0.356885	0.944775
	H17	H	0.946494	0.366002	0.923421
	C18	C	0.948870	0.355364	0.930723
	C19	C	0.942097	0.340525	0.925818
	C20	C	0.973796	0.402176	0.955103
	C21	C	0.977473	0.407239	0.971245
	H22	H	0.976981	0.398540	0.981107
	H23	H	0.984343	0.427098	0.986456
	C24	C	0.981548	0.423050	0.974194
	C25	C	0.982096	0.434398	0.961300
	C26	C	0.978551	0.429744	0.944770
	C27	C	0.974433	0.413394	0.942275
	H28	H	0.971624	0.409399	0.930008
	C29	C	0.979280	0.441957	0.931580
	C30	C	0.975894	0.438663	0.915018
	H31	H	0.972532	0.426492	0.911597
	C32	C	0.976644	0.450597	0.902876
	C33	C	0.981045	0.466608	0.907172
	H34	H	0.981627	0.475771	0.897757
	H35	H	0.987757	0.482493	0.926635
	C36	C	0.984436	0.470316	0.923159
	C37	C	0.983557	0.458337	0.935436
	C38	C	0.986746	0.462009	0.952024
	C39	C	0.986057	0.450803	0.964142
	H40	H	0.905868	0.368964	0.832994
	C41	C	0.913757	0.379280	0.834509
	C42	C	0.920978	0.382186	0.849960
	H43	H	0.936589	0.397625	0.863871
	C44	C	0.931103	0.395593	0.852047
	C45	C	0.934655	0.406355	0.839187
	H46	H	0.911692	0.387314	0.809749
	C47	C	0.916982	0.389444	0.821659
	C48	C	0.927493	0.402761	0.823650
	H49	H	0.949423	0.418662	0.866727
	C50	C	0.952160	0.425515	0.855811
	C51	C	0.945274	0.420612	0.840869
	C52	C	0.962242	0.439041	0.857091
	C53	C	0.965843	0.448217	0.842899
	H54	H	0.973693	0.458623	0.843919
	H55	H	0.961880	0.450804	0.817181
	C56	C	0.959301	0.443872	0.828097
	C57	C	0.948971	0.430339	0.826813
	C58	C	0.931542	0.412993	0.810417
	C59	C	0.941796	0.425758	0.811779
	C60	C	0.968495	0.443409	0.872653
	C61	C	0.972741	0.446719	0.886422
	C62	C	0.918509	0.371315	0.863150
	C63	C	0.918146	0.361254	0.873888
	C64	C	0.969279	0.385904	0.951940
	C65	C	0.964719	0.372301	0.949003
	B66	B	0.931266	0.286173	0.929267
	O67	O	0.923699	0.294540	0.916659
	O68	O	0.940168	0.296914	0.938764
	B69	B	0.992339	0.474288	0.975331
	O70	O	0.989569	0.458080	0.978881
	O71	O	0.990719	0.476818	0.958600
	B72	B	0.933956	0.424073	0.785986
	O73	O	0.943588	0.432954	0.796647
	O74	O	0.926355	0.411670	0.794504
	F75	F	0.948978	0.265999	0.953003
	C76	C	0.939609	0.258419	0.942096
	C77	C	0.939609	0.241586	0.942090
	F78	F	0.948978	0.233995	0.952991
	C79	C	0.930398	0.232587	0.930993
	C80	C	0.920573	0.241631	0.920499
	F81	F	0.910755	0.234200	0.909868
	C82	C	0.920572	0.258396	0.920506
	F83	F	0.910754	0.265837	0.909881
	C84	C	0.930397	0.267430	0.931008
	F85	F	0.002221	0.491834	0.031992
	C86	C	0.001217	0.496250	0.016279
	C87	C	-0.002285	0.484315	0.004856
	F88	F	-0.004401	0.469221	0.010342
	C89	C	-0.003610	0.487640	-0.011863
	C90	C	-0.001169	0.503789	-0.016304
	F91	F	-0.002171	0.508205	-0.032017
	C92	C	0.002332	0.515724	-0.004881
	F93	F	0.004450	0.530819	-0.010366
	C94	C	0.003655	0.512400	0.011839
	F95	F	0.911296	0.406935	0.765716
	C96	C	0.920468	0.418080	0.758305
	C97	C	0.918211	0.420336	0.741646
	F98	F	0.907089	0.411142	0.734230
	C99	C	0.927126	0.431631	0.732660
	C100	C	0.938456	0.440541	0.741614
	F101	F	0.947569	0.451641	0.734090
	C102	C	0.940635	0.438362	0.758345
	F103	F	0.951720	0.447491	0.765873
	C104	C	0.931739	0.427019	0.767297
	H105	H	0.984322	0.072907	0.986445
	C106	C	0.981531	0.076957	0.974181
	C107	C	0.982089	0.065610	0.961288
	H108	H	0.976956	0.101465	0.981092
	C109	C	0.977456	0.092768	0.971231
	C110	C	0.973787	0.097832	0.955086
	H111	H	0.971630	0.090612	0.929990
	C112	C	0.974433	0.086616	0.942258
	C113	C	0.978552	0.070265	0.944756
	C114	C	0.986751	0.038000	0.952014
	C115	C	0.986052	0.049205	0.964132
	C116	C	0.983567	0.041672	0.935425
	C117	C	0.984454	0.029695	0.923147
	H118	H	0.987777	0.017518	0.926624
	H119	H	0.981656	0.024243	0.897744
	C120	C	0.981069	0.033405	0.907159
	C121	C	0.976665	0.049416	0.902862
	H122	H	0.972544	0.073520	0.911582
	C123	C	0.975908	0.061349	0.915004
	C124	C	0.979289	0.058052	0.931567
	C125	C	0.962263	0.060984	0.857079
	C126	C	0.965871	0.051814	0.842885
	H127	H	0.973731	0.041415	0.843903
	H128	H	0.961907	0.049229	0.817168
	C129	C	0.959323	0.056157	0.828084
	C130	C	0.948978	0.069681	0.826803
	C131	C	0.945276	0.079405	0.840860
	C132	C	0.952168	0.074504	0.855801
	H133	H	0.949425	0.081353	0.866718
	C134	C	0.934645	0.093656	0.839180
	C135	C	0.931094	0.104420	0.852037
	H136	H	0.936591	0.102396	0.863858
	C137	C	0.920957	0.117821	0.849951
	C138	C	0.913722	0.120716	0.834505
	H139	H	0.905823	0.131026	0.832990
	H140	H	0.911646	0.112672	0.809749
	C141	C	0.916946	0.110549	0.821656
	C142	C	0.927472	0.097241	0.823646
	C143	C	0.931525	0.087012	0.810413
	C144	C	0.941794	0.074256	0.811772
	H145	H	0.968914	0.155751	0.965333
	C146	C	0.961494	0.156955	0.954512
	C147	C	0.958401	0.143125	0.944748
	H148	H	0.946482	0.134011	0.923397
	C149	C	0.948861	0.144648	0.930697
	C150	C	0.942090	0.159490	0.925790
	H151	H	0.957261	0.182290	0.957549
	C152	C	0.955037	0.171650	0.950187
	C153	C	0.945305	0.173192	0.936084
	H154	H	0.934836	0.137342	0.901432
	C155	C	0.929259	0.149007	0.899491
	C156	C	0.932114	0.161419	0.910933
	C157	C	0.919782	0.151386	0.885501
	C158	C	0.912434	0.166629	0.882727
	H159	H	0.905010	0.168350	0.871981
	H160	H	0.909652	0.190809	0.891500
	C161	C	0.914995	0.179040	0.893542
	C162	C	0.924968	0.176799	0.907388
	C163	C	0.938366	0.188154	0.931395
	C164	C	0.928590	0.189688	0.918129
	C165	C	0.918129	0.138765	0.873869
	C166	C	0.918490	0.128698	0.863136
	C167	C	0.964709	0.127708	0.948979
	C168	C	0.969269	0.114104	0.951920
	C169	C	0.968519	0.056615	0.872640
	C170	C	0.972765	0.053298	0.886407
	B171	B	0.992335	0.025720	0.975326
	O172	O	0.989559	0.041928	0.978873
	O173	O	0.990724	0.023190	0.958594
	B174	B	0.933942	0.075934	0.785981
	O175	O	0.943588	0.067061	0.796640
	O176	O	0.926330	0.088329	0.794502
	B177	B	0.931266	0.213845	0.929241
	O178	O	0.923701	0.205484	0.916630
	O179	O	0.940167	0.203099	0.938736
	H180	H	0.042737	0.682320	0.042414
	C181	C	0.044954	0.671679	0.049780
	C182	C	0.054708	0.673211	0.063868
	H183	H	0.031032	0.655798	0.034661
	C184	C	0.038468	0.656994	0.045472
	C185	C	0.041553	0.643162	0.055238
	H186	H	0.053486	0.634038	0.076579
	C187	C	0.051113	0.644676	0.069277
	C188	C	0.057912	0.659508	0.074167
	C189	C	0.071479	0.689682	0.081789
	C190	C	0.061681	0.688162	0.068538
	C191	C	0.075092	0.676792	0.092533
	C192	C	0.085090	0.679018	0.106361
	H193	H	0.090464	0.690776	0.108384
	H194	H	0.095080	0.668322	0.127919
	C195	C	0.087636	0.666611	0.117185
	C196	C	0.080245	0.651385	0.114439
	H197	H	0.065136	0.637366	0.098543
	C198	C	0.070746	0.649018	0.100463
	C199	C	0.067908	0.661426	0.089010
	C200	C	0.079036	0.617851	0.150022
	C201	C	0.086245	0.620769	0.165477
	H202	H	0.094122	0.631094	0.166993
	H203	H	0.088307	0.612743	0.190240
	C204	C	0.083025	0.610605	0.178328
	C205	C	0.072530	0.597275	0.176334
	C206	C	0.065376	0.593673	0.160796
	C207	C	0.068924	0.604434	0.147935
	H208	H	0.063447	0.602393	0.136107
	C209	C	0.054769	0.579406	0.159113
	C210	C	0.047886	0.574499	0.144172
	H211	H	0.050612	0.581357	0.133257
	C212	C	0.037815	0.560964	0.142891
	C213	C	0.034227	0.551781	0.157082
	H214	H	0.026388	0.541367	0.156062
	H215	H	0.038197	0.549195	0.182799
	C216	C	0.040767	0.556131	0.171884
	C217	C	0.051082	0.569675	0.173169
	C218	C	0.058249	0.574264	0.188203
	C219	C	0.068490	0.587040	0.189567
	H220	H	0.022963	0.601521	0.018915
	C221	C	0.022484	0.592816	0.028771
	C222	C	0.026160	0.597873	0.044916
	H223	H	0.028348	0.590638	0.070005
	C224	C	0.025541	0.586647	0.057736
	C225	C	0.021443	0.570293	0.055232
	H226	H	0.015634	0.572959	0.013549
	C227	C	0.018428	0.577002	0.025814
	C228	C	0.017898	0.565645	0.038700
	H229	H	0.027482	0.573529	0.088402
	C230	C	0.024129	0.561358	0.084976
	C231	C	0.020735	0.558070	0.068413
	C232	C	0.023398	0.549415	0.097110
	C233	C	0.019008	0.533403	0.092807
	H234	H	0.018439	0.524234	0.102217
	H235	H	0.012299	0.517524	0.073338
	C236	C	0.015611	0.529702	0.076820
	C237	C	0.016473	0.541689	0.064550
	C238	C	0.013956	0.549237	0.035849
	C239	C	0.013282	0.538024	0.047961
	C240	C	0.027309	0.553287	0.113564
	C241	C	0.031560	0.556595	0.127331
	C242	C	0.030663	0.614148	0.048086
	C243	C	0.035224	0.627751	0.051022
	C244	C	0.081507	0.628718	0.136829
	C245	C	0.081880	0.638773	0.126085
	B246	B	0.068821	0.713842	0.070676
	O247	O	0.059894	0.703109	0.061195
	O248	O	0.076396	0.705469	0.083275
	B249	B	0.066083	0.575956	0.213998
	O250	O	0.073673	0.588366	0.205481
	O251	O	0.056461	0.567066	0.203335
	B252	B	0.007697	0.525751	0.024648
	O253	O	0.009323	0.523214	0.041377
	O254	O	0.010448	0.541963	0.021107
	H255	H	0.982440	0.487839	0.573355
	C256	C	0.970263	0.484504	0.576827
	C257	C	0.958288	0.483610	0.564546
	H258	H	0.975714	0.481702	0.602231
	C259	C	0.966553	0.481109	0.592813
	C260	C	0.950542	0.476688	0.597104
	H261	H	0.926441	0.472547	0.588376
	C262	C	0.938611	0.475923	0.584959
	C263	C	0.941909	0.479313	0.568397
	C264	C	0.950758	0.486099	0.535837
	C265	C	0.961962	0.486800	0.547958
	C266	C	0.934352	0.482123	0.538676
	C267	C	0.923003	0.481565	0.525782
	H268	H	0.927049	0.484373	0.513521
	H269	H	0.898496	0.476963	0.518864
	C270	C	0.907194	0.477465	0.528727
	C271	C	0.902134	0.473770	0.544867
	H272	H	0.909357	0.471601	0.569961
	C273	C	0.913350	0.474422	0.557697
	C274	C	0.929697	0.478568	0.555205
	C275	C	0.856862	0.458284	0.555178
	C276	C	0.843037	0.461318	0.545383
	H277	H	0.844238	0.468718	0.534547
	H278	H	0.817714	0.457010	0.542308
	C279	C	0.828350	0.454830	0.549694
	C280	C	0.826812	0.445125	0.563815
	C281	C	0.840509	0.441967	0.574139
	C282	C	0.855342	0.448769	0.569246
	H283	H	0.865976	0.446437	0.576572
	C284	C	0.838582	0.432015	0.589012
	C285	C	0.850986	0.429206	0.600479
	H286	H	0.862646	0.434800	0.598544
	C287	C	0.848608	0.419752	0.614484
	C288	C	0.833373	0.412381	0.617250
	H289	H	0.831651	0.404976	0.628009
	H290	H	0.809207	0.409534	0.608446
	C291	C	0.820970	0.414896	0.606411
	C292	C	0.823210	0.424842	0.592548
	C293	C	0.810327	0.428411	0.581779
	C294	C	0.811856	0.438160	0.568493
	H295	H	0.958615	0.473688	0.656042
	C296	C	0.948210	0.465835	0.657068
	C297	C	0.939013	0.462252	0.642885
	H298	H	0.918617	0.449444	0.633266
	C299	C	0.925488	0.452166	0.644174
	C300	C	0.920609	0.445260	0.659115
	H301	H	0.950838	0.461839	0.682776
	C302	C	0.943889	0.459273	0.671868
	C303	C	0.930359	0.448938	0.673160
	H304	H	0.897586	0.436599	0.636138
	C305	C	0.895573	0.431100	0.647959
	C306	C	0.906354	0.434636	0.660806
	C307	C	0.882168	0.420971	0.650054
	C308	C	0.879286	0.413730	0.665500
	H309	H	0.868972	0.405838	0.667022
	H310	H	0.887361	0.411633	0.690244
	C311	C	0.889471	0.416939	0.678338
	C312	C	0.902787	0.427453	0.676338
	C313	C	0.925805	0.441740	0.688191
	C314	C	0.913041	0.431482	0.689559
	C315	C	0.871281	0.418510	0.636875
	C316	C	0.861220	0.418137	0.626136
	C317	C	0.943360	0.468522	0.627325
	C318	C	0.946663	0.472778	0.613557
	C319	C	0.872271	0.464627	0.550961
	C320	C	0.885867	0.469219	0.548027
	B321	B	0.974250	0.492385	0.524651
	O322	O	0.976774	0.490779	0.541384
	O323	O	0.958040	0.489610	0.521099
	B324	B	0.786173	0.431014	0.570630
	O325	O	0.796913	0.439911	0.561126
	O326	O	0.794538	0.423493	0.583267
	B327	B	0.924161	0.433863	0.713976
	O328	O	0.911746	0.426272	0.705466
	O329	O	0.933026	0.443511	0.703314
	F330	F	-0.002159	-0.008197	-0.032011
	C331	C	-0.001167	-0.003779	-0.016298
	C332	C	0.002334	-0.015710	-0.004869
	F333	F	0.004461	-0.030805	-0.010350
	C334	C	0.003647	-0.012383	0.011850
	C335	C	0.001200	0.003768	0.016285
	F336	F	0.002194	0.008187	0.031997
	C337	C	-0.002301	0.015699	0.004856
	F338	F	-0.004427	0.030794	0.010337
	C339	C	-0.003616	0.012371	-0.011863
	F340	F	0.911252	0.093045	0.765717
	C341	C	0.920439	0.081913	0.758304
	C342	C	0.918184	0.079658	0.741644
	F343	F	0.907047	0.088839	0.734231
	C344	C	0.927114	0.068377	0.732656
	C345	C	0.938457	0.059478	0.741608
	F346	F	0.947584	0.048389	0.734082
	C347	C	0.940635	0.061656	0.758339
	F348	F	0.951734	0.052539	0.765864
	C349	C	0.931725	0.072988	0.767292
	F350	F	0.051138	0.734015	0.046919
	C351	C	0.060497	0.741596	0.057835
	C352	C	0.060496	0.758428	0.057841
	F353	F	0.051137	0.766018	0.046931
	C354	C	0.069697	0.767429	0.068944
	C355	C	0.079517	0.758385	0.079444
	F356	F	0.089327	0.765817	0.090082
	C357	C	0.079518	0.741620	0.079438
	F358	F	0.089328	0.734179	0.090071
	C359	C	0.069699	0.732585	0.068932
	F360	F	0.088801	0.593030	0.234254
	C361	C	0.079596	0.581919	0.241672
	C362	C	0.081849	0.579663	0.258332
	F363	F	0.093002	0.588826	0.265741
	C364	C	0.072902	0.568400	0.267325
	C365	C	0.061544	0.559520	0.258377
	F366	F	0.052398	0.548451	0.265908
	C367	C	0.059369	0.561697	0.241645
	F368	F	0.048254	0.552599	0.234124
	C369	C	0.068297	0.573010	0.232687
	F370	F	0.733992	0.448603	0.546801
	C371	C	0.741582	0.439282	0.557745
	C372	C	0.758418	0.439283	0.557743
	F373	F	0.766003	0.448605	0.546798
	C374	C	0.767428	0.430121	0.568874
	C375	C	0.758390	0.420333	0.579408
	F376	F	0.765830	0.410558	0.590073
	C377	C	0.741621	0.420332	0.579410
	F378	F	0.734186	0.410555	0.590076
	C379	C	0.732578	0.430119	0.568879
	F380	F	0.008169	0.497879	0.532011
	C381	C	0.003763	0.498860	0.516294
	C382	C	0.015710	0.502342	0.504873
	F383	F	0.030804	0.504463	0.510366
	C384	C	0.012398	0.503642	0.488150
	C385	C	-0.003753	0.501203	0.483702
	F386	F	-0.008159	0.502185	0.467985
	C387	C	-0.015700	0.497721	0.495123
	F388	F	-0.030794	0.495601	0.489630
	C389	C	-0.012388	0.496419	0.511846
	H390	H	0.015638	0.927065	0.013570
	C391	C	0.018427	0.923020	0.025835
	C392	C	0.017890	0.934375	0.038722
	H393	H	0.022970	0.898501	0.018937
	C394	C	0.022485	0.907205	0.028794
	C395	C	0.026154	0.902146	0.044940
	H396	H	0.028329	0.909377	0.070031
	C397	C	0.025527	0.913370	0.057761
	C398	C	0.021428	0.929724	0.055255
	C399	C	0.013264	0.961995	0.047981
	C400	C	0.013947	0.950783	0.035869
	C401	C	0.016449	0.958329	0.064571
	C402	C	0.015578	0.970313	0.076843
	H403	H	0.012265	0.982491	0.073360
	H404	H	0.018397	0.975777	0.102241
	C405	C	0.018971	0.966610	0.092830
	C406	C	0.023365	0.950597	0.097134
	H407	H	0.027457	0.926485	0.088426
	C408	C	0.024102	0.938657	0.084999
	C409	C	0.020712	0.941946	0.068436
	C410	C	0.037792	0.939038	0.142911
	C411	C	0.034199	0.948215	0.157104
	H412	H	0.026350	0.958623	0.156087
	H413	H	0.038173	0.950800	0.182820
	C414	C	0.040747	0.943868	0.171903
	C415	C	0.051076	0.930331	0.173183
	C416	C	0.054767	0.920604	0.159126
	C417	C	0.047874	0.925509	0.144187
	H418	H	0.050604	0.918655	0.133271
	C419	C	0.065386	0.906344	0.160805
	C420	C	0.068934	0.895582	0.147945
	H421	H	0.063445	0.897616	0.136122
	C422	C	0.079058	0.882171	0.150030
	C423	C	0.086283	0.879263	0.165479
	H424	H	0.094171	0.868944	0.166993
	H425	H	0.088356	0.887296	0.190238
	C426	C	0.083063	0.889428	0.178329
	C427	C	0.072553	0.902749	0.176340
	C428	C	0.068510	0.912981	0.189574
	C429	C	0.058255	0.925748	0.188214
	H430	H	0.031026	0.844223	0.034692
	C431	C	0.038464	0.843025	0.045502
	C432	C	0.041552	0.856856	0.055265
	H433	H	0.053490	0.865979	0.076602
	C434	C	0.051114	0.855341	0.069302
	C435	C	0.057914	0.840507	0.074193
	H436	H	0.042731	0.817699	0.042446
	C437	C	0.044950	0.828339	0.049810
	C438	C	0.054707	0.826806	0.063896
	H439	H	0.065149	0.862649	0.098562
	C440	C	0.070756	0.850995	0.100484
	C441	C	0.067913	0.838587	0.089034
	C442	C	0.080257	0.848626	0.114459
	C443	C	0.087645	0.833398	0.117207
	H444	H	0.095090	0.831685	0.127940
	H445	H	0.090468	0.809231	0.108410
	C446	C	0.085095	0.820990	0.106385
	C447	C	0.075096	0.823218	0.092558
	C448	C	0.061680	0.811853	0.068566
	C449	C	0.071479	0.810329	0.081816
	C450	C	0.081896	0.861241	0.126101
	C451	C	0.081526	0.871300	0.136840
	C452	C	0.035221	0.872268	0.051048
	C453	C	0.030658	0.885871	0.048111
	C454	C	0.031530	0.943409	0.127353
	C455	C	0.027275	0.946722	0.113588
	B456	B	0.007688	0.974269	0.024664
	O457	O	0.010446	0.958057	0.021125
	O458	O	0.009306	0.976806	0.041394
	B459	B	0.066102	0.924062	0.214005
	O460	O	0.056466	0.932944	0.203347
	O461	O	0.073702	0.911659	0.205486
	B462	B	0.068819	0.786171	0.070699
	O463	O	0.076394	0.794539	0.083300
	O464	O	0.059891	0.796908	0.061221
	H465	H	0.982440	0.012129	0.573372
	C466	C	0.970263	0.015471	0.576841
	C467	C	0.958292	0.016375	0.564556
	H468	H	0.975707	0.018264	0.602247
	C469	C	0.966549	0.018865	0.592825
	C470	C	0.950540	0.023295	0.597113
	H471	H	0.926442	0.027452	0.588378
	C472	C	0.938612	0.024068	0.584964
	C473	C	0.941913	0.020679	0.568403
	C474	C	0.950769	0.013902	0.535844
	C475	C	0.961970	0.013189	0.547968
	C476	C	0.934364	0.017884	0.538679
	C477	C	0.923020	0.018452	0.525781
	H478	H	0.927070	0.015648	0.513520
	H479	H	0.898517	0.023066	0.518856
	C480	C	0.907211	0.022557	0.528722
	C481	C	0.902146	0.026246	0.544862
	H482	H	0.909360	0.028400	0.569959
	C483	C	0.913358	0.025584	0.557695
	C484	C	0.929705	0.021434	0.555207
	C485	C	0.856868	0.041726	0.555163
	C486	C	0.843046	0.038694	0.545365
	H487	H	0.844251	0.031301	0.534525
	H488	H	0.817721	0.042995	0.542291
	C489	C	0.828355	0.045173	0.549678
	C490	C	0.826810	0.054868	0.563805
	C491	C	0.840505	0.058027	0.574131
	C492	C	0.855342	0.051233	0.569236
	H493	H	0.865974	0.053564	0.576564
	C494	C	0.838572	0.067969	0.589009
	C495	C	0.850976	0.070783	0.600474
	H496	H	0.862642	0.065202	0.598532
	C497	C	0.848592	0.080229	0.614483
	C498	C	0.833349	0.087583	0.617258
	H499	H	0.831622	0.094980	0.628021
	H500	H	0.809178	0.090413	0.608462
	C501	C	0.820946	0.085063	0.606421
	C502	C	0.823194	0.075128	0.592551
	C503	C	0.810313	0.071558	0.581781
	C504	C	0.811850	0.061823	0.568487
	H505	H	0.958610	0.026302	0.656050
	C506	C	0.948206	0.034157	0.657073
	C507	C	0.939008	0.037739	0.642890
	H508	H	0.918613	0.050549	0.633266
	C509	C	0.925484	0.047827	0.644175
	C510	C	0.920604	0.054738	0.659113
	H511	H	0.950833	0.038157	0.682781
	C512	C	0.943884	0.040723	0.671872
	C513	C	0.930354	0.051061	0.673160
	H514	H	0.897578	0.063391	0.636135
	C515	C	0.895566	0.068897	0.647953
	C516	C	0.906349	0.065364	0.660801
	C517	C	0.882162	0.079030	0.650044
	C518	C	0.879283	0.086279	0.665486
	H519	H	0.868969	0.094175	0.667003
	H520	H	0.887359	0.088386	0.690228
	C521	C	0.889469	0.083074	0.678324
	C522	C	0.902782	0.072554	0.676330
	C523	C	0.925799	0.058264	0.688188
	C524	C	0.913036	0.068524	0.689553
	C525	C	0.871272	0.081484	0.636865
	C526	C	0.861206	0.081850	0.626130
	C527	C	0.943355	0.031465	0.627331
	C528	C	0.946658	0.027206	0.613564
	C529	C	0.872280	0.035388	0.550947
	C530	C	0.885879	0.030799	0.548016
	B531	B	0.974262	0.007610	0.524661
	O532	O	0.976782	0.009206	0.541396
	O533	O	0.958054	0.010396	0.521106
	B534	B	0.786162	0.068954	0.570627
	O535	O	0.796909	0.060070	0.561117
	O536	O	0.794520	0.076467	0.583272
	B537	B	0.924153	0.066145	0.713971
	O538	O	0.911739	0.073737	0.705459
	O539	O	0.933020	0.056495	0.703312
	H540	H	0.182301	0.543002	0.457689
	C541	C	0.171667	0.545177	0.450300
	C542	C	0.173203	0.554892	0.436186
	H543	H	0.155784	0.531270	0.465433
	C544	C	0.156983	0.538676	0.454602
	C545	C	0.143160	0.541705	0.444803
	H546	H	0.134045	0.553559	0.423413
	C547	C	0.144678	0.551229	0.430740
	C548	C	0.159508	0.558044	0.425857
	C549	C	0.189680	0.571633	0.418240
	C550	C	0.188154	0.561874	0.431519
	C551	C	0.176799	0.575197	0.407468
	C552	C	0.179035	0.585155	0.393613
	H553	H	0.190793	0.590533	0.391589
	H554	H	0.168355	0.595075	0.372014
	C555	C	0.166636	0.587660	0.382767
	C556	C	0.151410	0.580268	0.385517
	H557	H	0.137381	0.565191	0.401438
	C558	C	0.149034	0.570803	0.399515
	C559	C	0.161433	0.568004	0.410990
	C560	C	0.117866	0.579029	0.349931
	C561	C	0.120763	0.586254	0.334481
	H562	H	0.131087	0.594132	0.332956
	H563	H	0.112698	0.588345	0.309733
	C564	C	0.110577	0.583049	0.321642
	C565	C	0.097247	0.572555	0.323645
	C566	C	0.093667	0.565384	0.339181
	C567	C	0.104450	0.568916	0.352029
	H568	H	0.102425	0.563429	0.363854
	C569	C	0.079400	0.554778	0.340874
	C570	C	0.074516	0.547875	0.355815
	H571	H	0.081395	0.550584	0.366721
	C572	C	0.060978	0.537807	0.357106
	C573	C	0.051770	0.534241	0.342927
	H574	H	0.041354	0.526404	0.343955
	H575	H	0.049141	0.538244	0.317219
	C576	C	0.056096	0.540799	0.328126
	C577	C	0.069642	0.551112	0.326830
	C578	C	0.074206	0.558301	0.311798
	C579	C	0.086987	0.568536	0.310426
	H580	H	0.101532	0.523017	0.481106
	C581	C	0.092830	0.522525	0.471247
	C582	C	0.097887	0.526219	0.455105
	H583	H	0.090659	0.528397	0.430014
	C584	C	0.086667	0.525578	0.442280
	C585	C	0.070317	0.521447	0.444776
	H586	H	0.072974	0.515633	0.486458
	C587	C	0.077018	0.518439	0.474197
	C588	C	0.065664	0.517894	0.461306
	H589	H	0.073565	0.527476	0.411605
	C590	C	0.061393	0.524108	0.415026
	C591	C	0.058100	0.520716	0.431588
	C592	C	0.049456	0.523359	0.402885
	C593	C	0.033444	0.518948	0.407182
	H594	H	0.024279	0.518365	0.397767
	H595	H	0.017560	0.512223	0.426644
	C596	C	0.029738	0.515550	0.423167
	C597	C	0.041719	0.516432	0.435445
	C598	C	0.049256	0.513934	0.464151
	C599	C	0.038048	0.513244	0.452033
	C600	C	0.053331	0.527275	0.386433
	C601	C	0.056630	0.531536	0.372666
	C602	C	0.114156	0.530760	0.451943
	C603	C	0.127753	0.535352	0.449012
	C604	C	0.128749	0.581491	0.363113
	C605	C	0.138804	0.581871	0.373858
	B606	B	0.213833	0.569040	0.429395
	O607	O	0.203096	0.560129	0.438889
	O608	O	0.205466	0.576566	0.416762
	B609	B	0.075862	0.566167	0.286010
	O610	O	0.088291	0.573739	0.294517
	O611	O	0.066981	0.556539	0.296676
	B612	B	0.025761	0.507669	0.475344
	O613	O	0.023234	0.509278	0.458611
	O614	O	0.041974	0.510431	0.478891
	H615	H	0.572936	0.484328	0.513542
	C616	C	0.576983	0.481527	0.525804
	C617	C	0.565635	0.482088	0.538699
	H618	H	0.601491	0.476927	0.518886
	C619	C	0.592794	0.477431	0.528749
	C620	C	0.597856	0.473745	0.544891
	H621	H	0.590635	0.471585	0.569987
	C622	C	0.586640	0.474399	0.557721
	C623	C	0.570291	0.478540	0.555228
	C624	C	0.538024	0.486768	0.547981
	C625	C	0.549228	0.486061	0.535859
	C626	C	0.541699	0.483583	0.564569
	C627	C	0.529723	0.484481	0.576850
	H628	H	0.517546	0.487818	0.573378
	H629	H	0.524272	0.481680	0.602255
	C630	C	0.533433	0.481086	0.592836
	C631	C	0.549444	0.476661	0.597127
	H632	H	0.573546	0.472517	0.588400
	C633	C	0.561376	0.475896	0.584982
	C634	C	0.558079	0.479286	0.568421
	C635	C	0.560970	0.462208	0.642904
	C636	C	0.551764	0.465779	0.657084
	H637	H	0.541354	0.473627	0.656059
	H638	H	0.549130	0.461769	0.682790
	C639	C	0.556085	0.459212	0.671883
	C640	C	0.569622	0.448884	0.673174
	C641	C	0.579379	0.445216	0.659129
	C642	C	0.574501	0.452129	0.644191
	H643	H	0.581378	0.449416	0.633284
	C644	C	0.593640	0.434598	0.660820
	C645	C	0.604427	0.431069	0.647973
	H646	H	0.602412	0.436570	0.636153
	C647	C	0.617837	0.420944	0.650068
	C648	C	0.620720	0.413701	0.665513
	H649	H	0.631039	0.405814	0.667034
	H650	H	0.612642	0.411593	0.690255
	C651	C	0.610530	0.416902	0.678350
	C652	C	0.597209	0.427411	0.676351
	C653	C	0.586948	0.431431	0.689571
	C654	C	0.574177	0.441682	0.688202
	H655	H	0.655752	0.468702	0.534565
	C656	C	0.656956	0.461302	0.545400
	C657	C	0.643134	0.458267	0.555197
	H658	H	0.634025	0.446417	0.576591
	C659	C	0.644657	0.448751	0.569265
	C660	C	0.659493	0.441950	0.574155
	H661	H	0.682280	0.456996	0.542321
	C662	C	0.671645	0.454816	0.549709
	C663	C	0.673188	0.445111	0.563829
	H664	H	0.637360	0.434781	0.598562
	C665	C	0.649021	0.429188	0.600496
	C666	C	0.661424	0.431998	0.589028
	C667	C	0.651404	0.419734	0.614500
	C668	C	0.666641	0.412364	0.617264
	H669	H	0.668365	0.404958	0.628022
	H670	H	0.690806	0.409518	0.608456
	C671	C	0.679042	0.414880	0.606423
	C672	C	0.676798	0.424827	0.592561
	C673	C	0.688146	0.438148	0.568506
	C674	C	0.689680	0.428399	0.581791
	C675	C	0.638793	0.418119	0.626153
	C676	C	0.628729	0.418490	0.636890
	C677	C	0.627723	0.464609	0.550983
	C678	C	0.614124	0.469198	0.548050
	C679	C	0.556624	0.468486	0.627345
	C680	C	0.553322	0.472748	0.613579
	B681	B	0.525736	0.492345	0.524672
	O682	O	0.541946	0.489566	0.521120
	O683	O	0.523212	0.490744	0.541405
	B684	B	0.575819	0.433798	0.713986
	O685	O	0.566949	0.443442	0.703324
	O686	O	0.588243	0.426216	0.705477
	B687	B	0.713833	0.431008	0.570640
	O688	O	0.705472	0.423484	0.583277
	O689	O	0.703088	0.439903	0.561138
	F690	F	0.088838	0.906997	0.234257
	C691	C	0.079627	0.918103	0.241677
	C692	C	0.081880	0.920357	0.258337
	F693	F	0.093039	0.911198	0.265745
	C694	C	0.072927	0.931615	0.267333
	C695	C	0.061564	0.940493	0.258386
	F696	F	0.052413	0.951558	0.265919
	C697	C	0.059388	0.938318	0.241655
	F698	F	0.048268	0.947414	0.234136
	C699	C	0.068320	0.927008	0.232694
	F700	F	-0.030782	0.004426	0.489640
	C701	C	-0.015689	0.002291	0.495132
	C702	C	-0.003744	-0.001189	0.483708
	F703	F	-0.008150	-0.002156	0.467991
	C704	C	0.012406	-0.003643	0.488154
	C705	C	0.015719	-0.002358	0.504879
	F706	F	0.030812	-0.004494	0.510370
	C707	C	0.003774	0.001122	0.516302
	F708	F	0.008180	0.002087	0.532020
	C709	C	-0.012376	0.003578	0.511856
	F710	F	0.734175	0.089388	0.590096
	C711	C	0.741610	0.079625	0.579416
	C712	C	0.758378	0.079621	0.579415
	F713	F	0.765818	0.089379	0.590095
	C714	C	0.767418	0.069847	0.568868
	C715	C	0.758409	0.060702	0.557724
	F716	F	0.765995	0.051394	0.546767
	C717	C	0.741573	0.060706	0.557725
	F718	F	0.733983	0.051402	0.546768
	C719	C	0.732568	0.069856	0.568870
	F720	F	0.234001	0.551441	0.453220
	C721	C	0.241586	0.560767	0.442279
	C722	C	0.258422	0.560765	0.442274
	F723	F	0.266012	0.551437	0.453211
	C724	C	0.267427	0.569931	0.431143
	C725	C	0.258384	0.579728	0.420621
	F726	F	0.265821	0.589510	0.409961
	C727	C	0.241616	0.579731	0.420625
	F728	F	0.234175	0.589515	0.409969
	C729	C	0.232577	0.569936	0.431153
	F730	F	0.491816	0.497856	0.532028
	C731	C	0.496224	0.498830	0.516310
	C732	C	0.484281	0.502315	0.504887
	F733	F	0.469187	0.504447	0.510377
	C734	C	0.487597	0.503609	0.488164
	C735	C	0.503748	0.501157	0.483719
	F736	F	0.508156	0.502132	0.468002
	C737	C	0.515691	0.497672	0.495142
	F738	F	0.530785	0.495541	0.489652
	C739	C	0.512375	0.496378	0.511865
	F740	F	0.592936	0.411115	0.734251
	C741	C	0.581790	0.420288	0.741661
	C742	C	0.579534	0.418033	0.758321
	F743	F	0.588729	0.406911	0.765739
	C744	C	0.568241	0.426952	0.767307
	C745	C	0.559321	0.438273	0.758348
	F746	F	0.548212	0.447380	0.765869
	C747	C	0.561500	0.440451	0.741617
	F748	F	0.552362	0.451528	0.734087
	C749	C	0.572853	0.431562	0.732669
	H750	H	0.182315	0.957000	0.457708
	C751	C	0.171682	0.954827	0.450318
	C752	C	0.173222	0.945117	0.436201
	H753	H	0.155794	0.968729	0.465451
	C754	C	0.156996	0.961326	0.454619
	C755	C	0.143175	0.958299	0.444818
	H756	H	0.134065	0.946452	0.423424
	C757	C	0.144697	0.948780	0.430753
	C758	C	0.159529	0.941967	0.425869
	C759	C	0.189707	0.928387	0.418251
	C760	C	0.188176	0.938139	0.431533
	C761	C	0.176827	0.924826	0.407476
	C762	C	0.179069	0.914874	0.393618
	H763	H	0.190830	0.909501	0.391592
	H764	H	0.168394	0.904959	0.372016
	C765	C	0.166672	0.912369	0.382771
	C766	C	0.151441	0.919755	0.385525
	H767	H	0.137404	0.934821	0.401450
	C768	C	0.149060	0.929215	0.399525
	C769	C	0.161459	0.932013	0.411000
	C770	C	0.117895	0.920990	0.349940
	C771	C	0.120794	0.913764	0.334490
	H772	H	0.131122	0.905888	0.332967
	H773	H	0.112729	0.911671	0.309743
	C774	C	0.110607	0.916967	0.321651
	C775	C	0.097274	0.927459	0.323653
	C776	C	0.093692	0.934632	0.339188
	C777	C	0.104476	0.931101	0.352036
	H778	H	0.102450	0.936590	0.363860
	C779	C	0.079421	0.945236	0.340880
	C780	C	0.074537	0.952140	0.355820
	H781	H	0.081418	0.949433	0.366726
	C782	C	0.060996	0.962206	0.357110
	C783	C	0.051785	0.965769	0.342931
	H784	H	0.041367	0.973605	0.343958
	H785	H	0.049155	0.961763	0.317225
	C786	C	0.056112	0.959210	0.328131
	C787	C	0.069661	0.948898	0.326836
	C788	C	0.074227	0.941710	0.311805
	C789	C	0.087012	0.931477	0.310433
	H790	H	0.101533	0.976961	0.481119
	C791	C	0.092834	0.977460	0.471257
	C792	C	0.097896	0.973777	0.455115
	H793	H	0.090674	0.971614	0.430020
	C794	C	0.086678	0.974426	0.442287
	C795	C	0.070327	0.978556	0.444782
	H796	H	0.072974	0.984346	0.486467
	C797	C	0.077022	0.981547	0.474205
	C798	C	0.065671	0.982101	0.461312
	H799	H	0.073579	0.972525	0.411612
	C800	C	0.061408	0.975901	0.415030
	C801	C	0.058112	0.979294	0.431592
	C802	C	0.049473	0.976659	0.402887
	C803	C	0.033463	0.981079	0.407180
	H804	H	0.024300	0.981670	0.397763
	H805	H	0.017576	0.987810	0.426639
	C806	C	0.029754	0.984476	0.423166
	C807	C	0.041731	0.983584	0.435446
	C808	C	0.049263	0.986065	0.464154
	C809	C	0.038057	0.986767	0.452034
	C810	C	0.053349	0.972742	0.386436
	C811	C	0.056648	0.968479	0.372670
	C812	C	0.114167	0.969239	0.451955
	C813	C	0.127766	0.964650	0.449026
	C814	C	0.128780	0.918530	0.363122
	C815	C	0.138836	0.918151	0.373865
	B816	B	0.213857	0.930978	0.429409
	O817	O	0.203116	0.939882	0.438907
	O818	O	0.205494	0.923458	0.416772
	B819	B	0.075886	0.933844	0.286018
	O820	O	0.088318	0.926274	0.294525
	O821	O	0.067001	0.943470	0.296683
	B822	B	0.025768	0.992333	0.475346
	O823	O	0.023243	0.990735	0.458612
	O824	O	0.041980	0.989563	0.478895
	H825	H	0.572921	0.015690	0.513533
	C826	C	0.576971	0.018489	0.525794
	C827	C	0.565628	0.017916	0.538693
	H828	H	0.601474	0.023104	0.518869
	C829	C	0.592780	0.022591	0.528735
	C830	C	0.597844	0.026273	0.544877
	H831	H	0.590631	0.028418	0.569976
	C832	C	0.586633	0.025608	0.557711
	C833	C	0.570286	0.021460	0.555223
	C834	C	0.538024	0.013215	0.547982
	C835	C	0.549225	0.013933	0.535858
	C836	C	0.541701	0.016397	0.564570
	C837	C	0.529730	0.015487	0.576855
	H838	H	0.517555	0.012142	0.573386
	H839	H	0.524284	0.018277	0.602262
	C840	C	0.533442	0.018881	0.592840
	C841	C	0.549449	0.023317	0.597128
	H842	H	0.573545	0.027480	0.588393
	C843	C	0.561377	0.024093	0.584979
	C844	C	0.558078	0.020703	0.568418
	C845	C	0.560974	0.037776	0.642900
	C846	C	0.551776	0.034201	0.657085
	H847	H	0.541372	0.026347	0.656065
	H848	H	0.549147	0.038211	0.682791
	C849	C	0.556096	0.040772	0.671881
	C850	C	0.569626	0.051108	0.673166
	C851	C	0.579377	0.054779	0.659117
	C852	C	0.574498	0.047863	0.644182
	H853	H	0.581370	0.050579	0.633272
	C854	C	0.593630	0.065404	0.660801
	C855	C	0.604413	0.068935	0.647952
	H856	H	0.602401	0.063428	0.636134
	C857	C	0.617816	0.079068	0.650040
	C858	C	0.620695	0.086318	0.665481
	H859	H	0.631008	0.094213	0.666998
	H860	H	0.612619	0.088428	0.690224
	C861	C	0.610510	0.083114	0.678321
	C862	C	0.597197	0.072596	0.676329
	C863	C	0.586945	0.068570	0.689553
	C864	C	0.574181	0.058313	0.688191
	H865	H	0.655736	0.031324	0.534534
	C866	C	0.656941	0.038719	0.545372
	C867	C	0.643120	0.041752	0.555172
	H868	H	0.634012	0.053596	0.576570
	C869	C	0.644644	0.051263	0.569242
	C870	C	0.659480	0.058058	0.574134
	H871	H	0.682265	0.043019	0.542294
	C872	C	0.671631	0.045199	0.549683
	C873	C	0.673175	0.054896	0.563808
	H874	H	0.637342	0.065238	0.598534
	C875	C	0.649006	0.070820	0.600473
	C876	C	0.661411	0.068004	0.589009
	C877	C	0.651389	0.080268	0.614481
	C878	C	0.666630	0.087622	0.617254
	H879	H	0.668354	0.095022	0.628015
	H880	H	0.690801	0.090451	0.608457
	C881	C	0.679033	0.085101	0.606417
	C882	C	0.676788	0.075162	0.592550
	C883	C	0.688134	0.061849	0.568489
	C884	C	0.689670	0.071588	0.581780
	C885	C	0.638773	0.081890	0.626128
	C886	C	0.628706	0.081522	0.636862
	C887	C	0.627709	0.035414	0.550959
	C888	C	0.614111	0.030823	0.548031
	C889	C	0.556629	0.031495	0.627344
	C890	C	0.553327	0.027231	0.613579
	B891	B	0.525736	0.007640	0.524674
	O892	O	0.541942	0.010430	0.521119
	O893	O	0.523213	0.009231	0.541408
	B894	B	0.575832	0.066194	0.713974
	O895	O	0.566962	0.056548	0.703317
	O896	O	0.588244	0.073784	0.705459
	B897	B	0.713823	0.068973	0.570629
	O898	O	0.705464	0.076493	0.583270
	O899	O	0.703076	0.060090	0.561121
	H900	H	0.427028	0.515626	0.486466
	C901	C	0.422984	0.518428	0.474204
	C902	C	0.434338	0.517876	0.461314
	H903	H	0.398471	0.523016	0.481112
	C904	C	0.407173	0.522518	0.471252
	C905	C	0.402116	0.526207	0.455110
	H906	H	0.409346	0.528375	0.430017
	C907	C	0.413337	0.525559	0.442284
	C908	C	0.429687	0.521425	0.444783
	C909	C	0.461955	0.513215	0.452042
	C910	C	0.450746	0.513912	0.464159
	C911	C	0.458285	0.516401	0.435452
	C912	C	0.470266	0.515513	0.423175
	H913	H	0.482444	0.512185	0.426652
	H914	H	0.475724	0.518319	0.397773
	C915	C	0.466559	0.518907	0.407188
	C916	C	0.450547	0.523319	0.402891
	H917	H	0.426438	0.527444	0.411611
	C918	C	0.438610	0.524075	0.415032
	C919	C	0.441904	0.520686	0.431595
	C920	C	0.439023	0.537772	0.357115
	C921	C	0.448222	0.534192	0.342932
	H922	H	0.458627	0.526338	0.343955
	H923	H	0.450852	0.538197	0.317225
	C924	C	0.443902	0.540761	0.328134
	C925	C	0.430371	0.551098	0.326845
	C926	C	0.420619	0.554773	0.340891
	C927	C	0.425497	0.547860	0.355829
	H928	H	0.418625	0.550579	0.366738
	C929	C	0.406364	0.565399	0.339203
	C930	C	0.395580	0.568933	0.352050
	H931	H	0.397591	0.563428	0.363869
	C932	C	0.382175	0.579065	0.349956
	C933	C	0.379297	0.586313	0.334513
	H934	H	0.368983	0.594207	0.332993
	H935	H	0.387377	0.588420	0.309771
	C936	C	0.389485	0.583108	0.321675
	C937	C	0.402799	0.572590	0.323672
	C938	C	0.413055	0.568562	0.310451
	C939	C	0.425818	0.558301	0.311817
	H940	H	0.344216	0.531251	0.465415
	C941	C	0.343019	0.538662	0.454586
	C942	C	0.356845	0.541696	0.444794
	H943	H	0.365965	0.553558	0.423411
	C944	C	0.355330	0.551224	0.430734
	C945	C	0.340499	0.558040	0.425847
	H946	H	0.317698	0.542982	0.457665
	C947	C	0.328335	0.545162	0.450281
	C948	C	0.326802	0.554882	0.436170
	H949	H	0.362636	0.565206	0.401444
	C950	C	0.350980	0.570812	0.399516
	C951	C	0.338576	0.568005	0.410983
	C952	C	0.348606	0.580281	0.385520
	C953	C	0.333376	0.587667	0.382763
	H954	H	0.331659	0.595083	0.372011
	H955	H	0.309213	0.590528	0.391574
	C956	C	0.320973	0.585154	0.393603
	C957	C	0.323208	0.575193	0.407456
	C958	C	0.311850	0.561864	0.431501
	C959	C	0.310324	0.571625	0.418224
	C960	C	0.361219	0.581894	0.373869
	C961	C	0.371284	0.581522	0.363134
	C962	C	0.372252	0.535343	0.449008
	C963	C	0.385848	0.530750	0.451944
	C964	C	0.443369	0.531494	0.372673
	C965	C	0.446671	0.527231	0.386439
	B966	B	0.474238	0.507640	0.475355
	O967	O	0.458026	0.510409	0.478901
	O968	O	0.476768	0.509246	0.458622
	B969	B	0.424175	0.566184	0.286034
	O970	O	0.433040	0.556533	0.296693
	O971	O	0.411760	0.573777	0.294545
	B972	B	0.286170	0.569030	0.429378
	O973	O	0.294536	0.576557	0.416745
	O974	O	0.296908	0.560117	0.438870
	H975	H	0.512175	0.482469	0.926622
	C976	C	0.515502	0.470292	0.923148
	C977	C	0.516386	0.458316	0.935427
	H978	H	0.518311	0.475744	0.897745
	C979	C	0.518896	0.466583	0.907162
	C980	C	0.523307	0.450573	0.902870
	H981	H	0.527429	0.426470	0.911595
	C982	C	0.524060	0.438640	0.915013
	C983	C	0.520668	0.441936	0.931575
	C984	C	0.513895	0.450787	0.964135
	C985	C	0.513199	0.461990	0.952015
	C986	C	0.517857	0.434381	0.961295
	C987	C	0.518409	0.423036	0.974192
	H988	H	0.515618	0.427088	0.986454
	H989	H	0.522976	0.398527	0.981109
	C990	C	0.522481	0.407223	0.971245
	C991	C	0.526151	0.402157	0.955102
	H992	H	0.528316	0.409373	0.930005
	C993	C	0.525512	0.413371	0.942272
	C994	C	0.521398	0.429723	0.944765
	C995	C	0.541541	0.356860	0.944795
	C996	C	0.538452	0.343031	0.954562
	H997	H	0.531027	0.344233	0.965380
	H998	H	0.542700	0.317699	0.957610
	C999	C	0.544920	0.328339	0.950245
	C1000	C	0.554658	0.326799	0.936146
	C1001	C	0.557869	0.340500	0.925849
	C1002	C	0.551088	0.355339	0.930748
	H1003	H	0.553464	0.365976	0.923445
	C1004	C	0.567851	0.338575	0.910996
	C1005	C	0.570703	0.350985	0.899550
	H1006	H	0.565117	0.362648	0.901484
	C1007	C	0.580187	0.348609	0.885564
	C1008	C	0.587545	0.333370	0.882799
	H1009	H	0.594976	0.331651	0.872056
	H1010	H	0.590338	0.309193	0.891580
	C1011	C	0.584987	0.320960	0.893617
	C1012	C	0.575007	0.323198	0.907457
	C1013	C	0.571386	0.310310	0.918198
	C1014	C	0.561607	0.311839	0.931463
	H1015	H	0.526278	0.458586	0.843912
	C1016	C	0.534129	0.448179	0.842898
	C1017	C	0.537727	0.439007	0.857093
	H1018	H	0.550546	0.418630	0.866738
	C1019	C	0.547812	0.425480	0.855820
	C1020	C	0.554702	0.420572	0.840881
	H1021	H	0.538097	0.450757	0.817179
	C1022	C	0.540675	0.443829	0.828098
	C1023	C	0.551006	0.430294	0.826820
	H1024	H	0.563389	0.397595	0.863894
	C1025	C	0.568875	0.395557	0.852070
	C1026	C	0.565322	0.406313	0.839205
	C1027	C	0.579000	0.382147	0.849988
	C1028	C	0.586221	0.379233	0.834539
	H1029	H	0.594110	0.368914	0.833028
	H1030	H	0.588286	0.387255	0.809775
	C1031	C	0.582996	0.389392	0.821684
	C1032	C	0.572486	0.402712	0.823670
	C1033	C	0.558183	0.425707	0.811790
	C1034	C	0.568438	0.412940	0.810432
	C1035	C	0.581471	0.371282	0.863184
	C1036	C	0.581835	0.361226	0.873926
	C1037	C	0.531469	0.443379	0.872652
	C1038	C	0.527217	0.446693	0.886418
	C1039	C	0.535224	0.372276	0.949015
	C1040	C	0.530664	0.385882	0.951944
	B1041	B	0.507615	0.474273	0.975324
	O1042	O	0.509226	0.476801	0.958592
	O1043	O	0.510388	0.458066	0.978874
	B1044	B	0.568713	0.286150	0.929307
	O1045	O	0.559810	0.296892	0.938804
	O1046	O	0.576279	0.294516	0.916700
	B1047	B	0.566025	0.424012	0.785997
	O1048	O	0.573626	0.411611	0.794520
	O1049	O	0.556392	0.432898	0.796655
	F1050	F	0.234199	0.910534	0.409955
	C1051	C	0.241639	0.920300	0.420626
	C1052	C	0.258408	0.920300	0.420622
	F1053	F	0.265844	0.910533	0.409945
	C1054	C	0.267450	0.930078	0.431159
	C1055	C	0.258445	0.939230	0.442303
	F1056	F	0.266035	0.948539	0.453255
	C1057	C	0.241609	0.939231	0.442308
	F1058	F	0.234024	0.948541	0.453263
	C1059	C	0.232601	0.930080	0.431168
	F1060	F	0.592980	0.088845	0.734245
	C1061	C	0.581827	0.079682	0.741654
	C1062	C	0.579577	0.081931	0.758316
	F1063	F	0.588785	0.093038	0.765735
	C1064	C	0.568277	0.073021	0.767300
	C1065	C	0.559345	0.061714	0.758340
	F1066	F	0.548229	0.052616	0.765860
	C1067	C	0.561518	0.059542	0.741608
	F1068	F	0.552369	0.048478	0.734076
	C1069	C	0.572876	0.068423	0.732660
	F1070	F	0.530794	0.004461	0.489655
	C1071	C	0.515700	0.002320	0.495142
	C1072	C	0.503761	-0.001165	0.483715
	F1073	F	0.508174	-0.002129	0.467998
	C1074	C	0.487611	-0.003625	0.488156
	C1075	C	0.484292	-0.002343	0.504879
	F1076	F	0.469198	-0.004485	0.510365
	C1077	C	0.496230	0.001142	0.516306
	F1078	F	0.491818	0.002105	0.532023
	C1079	C	0.512380	0.003604	0.511865
	F1080	F	0.451727	0.552548	0.234133
	C1081	C	0.440643	0.561679	0.241662
	C1082	C	0.438468	0.559504	0.258394
	F1083	F	0.447584	0.548404	0.265918
	C1084	C	0.427138	0.568416	0.267349
	C1085	C	0.418221	0.579711	0.258364
	F1086	F	0.407101	0.588908	0.265781
	C1087	C	0.420474	0.581963	0.241703
	F1088	F	0.411301	0.593108	0.234293
	C1089	C	0.431743	0.573021	0.232710
	F1090	F	0.551065	0.233973	0.953081
	C1091	C	0.560402	0.241564	0.942153
	C1092	C	0.560400	0.258397	0.942160
	F1093	F	0.551061	0.265978	0.953094
	C1094	C	0.569582	0.267406	0.931046
	C1095	C	0.579379	0.258372	0.920517
	F1096	F	0.589166	0.265812	0.909863
	C1097	C	0.579381	0.241607	0.920510
	F1098	F	0.589169	0.234176	0.909849
	C1099	C	0.569586	0.232563	0.931033
	F1100	F	0.504397	0.469203	0.010336
	C1101	C	0.502264	0.484297	0.004853
	C1102	C	0.498765	0.496229	0.016280
	F1103	F	0.497781	0.491812	0.031994
	C1104	C	0.496310	0.512377	0.011842
	C1105	C	0.497615	0.515703	-0.004878
	F1106	F	0.495482	0.530797	-0.010361
	C1107	C	0.501114	0.503771	-0.016306
	F1108	F	0.502098	0.508188	-0.032020
	C1109	C	0.503569	0.487623	-0.011867
	H1110	H	0.427057	0.984337	0.486465
	C1111	C	0.423010	0.981540	0.474203
	C1112	C	0.434360	0.982101	0.461309
	H1113	H	0.398501	0.976947	0.481115
	C1114	C	0.407200	0.977451	0.471254
	C1115	C	0.402140	0.973771	0.455111
	H1116	H	0.409363	0.971615	0.430015
	C1117	C	0.413358	0.974425	0.442282
	C1118	C	0.429707	0.978558	0.444778
	C1119	C	0.461973	0.986776	0.452032
	C1120	C	0.450767	0.986070	0.464151
	C1121	C	0.458301	0.983594	0.435443
	C1122	C	0.470278	0.984490	0.423162
	H1123	H	0.482454	0.987824	0.426636
	H1124	H	0.475731	0.981692	0.397758
	C1125	C	0.466569	0.981098	0.407176
	C1126	C	0.450560	0.976677	0.402883
	H1127	H	0.426456	0.972537	0.411608
	C1128	C	0.438626	0.975914	0.415027
	C1129	C	0.441921	0.979302	0.431588
	C1130	C	0.439031	0.962219	0.357111
	C1131	C	0.448226	0.965799	0.342926
	H1132	H	0.458629	0.973655	0.343945
	H1133	H	0.450851	0.961793	0.317219
	C1134	C	0.443905	0.959229	0.328129
	C1135	C	0.430377	0.948891	0.326845
	C1136	C	0.420630	0.945215	0.340895
	C1137	C	0.425509	0.952130	0.355830
	H1138	H	0.418640	0.949410	0.366741
	C1139	C	0.406378	0.934587	0.339211
	C1140	C	0.395597	0.931053	0.352060
	H1141	H	0.397609	0.936559	0.363878
	C1142	C	0.382196	0.920919	0.349971
	C1143	C	0.379316	0.913669	0.334529
	H1144	H	0.369005	0.905773	0.333012
	H1145	H	0.387392	0.911563	0.309786
	C1146	C	0.389501	0.916875	0.321689
	C1147	C	0.402812	0.927396	0.323682
	C1148	C	0.413062	0.931425	0.310457
	C1149	C	0.425822	0.941687	0.311819
	H1150	H	0.344241	0.968734	0.465429
	C1151	C	0.343043	0.961325	0.454600
	C1152	C	0.356868	0.958290	0.444806
	H1153	H	0.365986	0.946430	0.423421
	C1154	C	0.355352	0.948763	0.430746
	C1155	C	0.340522	0.941950	0.425861
	H1156	H	0.317723	0.957007	0.457682
	C1157	C	0.328359	0.954827	0.450297
	C1158	C	0.326825	0.945109	0.436186
	H1159	H	0.362660	0.934776	0.401461
	C1160	C	0.351003	0.929175	0.399532
	C1161	C	0.338598	0.931987	0.410997
	C1162	C	0.348628	0.919709	0.385535
	C1163	C	0.333396	0.912331	0.382776
	H1164	H	0.331678	0.904917	0.372024
	H1165	H	0.309232	0.909480	0.391585
	C1166	C	0.320992	0.914848	0.393615
	C1167	C	0.323229	0.924805	0.407469
	C1168	C	0.311873	0.938132	0.431517
	C1169	C	0.310345	0.928375	0.418238
	C1170	C	0.361242	0.918091	0.373886
	C1171	C	0.371307	0.918462	0.363150
	C1172	C	0.372275	0.964641	0.449016
	C1173	C	0.385871	0.969231	0.451948
	C1174	C	0.443378	0.968500	0.372667
	C1175	C	0.446682	0.972764	0.386431
	B1176	B	0.474256	0.992346	0.475344
	O1177	O	0.458046	0.989569	0.478893
	O1178	O	0.476784	0.990749	0.458611
	B1179	B	0.424173	0.933808	0.286036
	O1180	O	0.433039	0.943458	0.296693
	O1181	O	0.411764	0.926212	0.294551
	B1182	B	0.286193	0.930974	0.429394
	O1183	O	0.294557	0.923449	0.416759
	O1184	O	0.296933	0.939880	0.438889
	H1185	H	0.515663	0.072883	0.986441
	C1186	C	0.518450	0.076935	0.974178
	C1187	C	0.517892	0.065591	0.961282
	H1188	H	0.523022	0.101442	0.981094
	C1189	C	0.522523	0.092746	0.971230
	C1190	C	0.526188	0.097813	0.955086
	H1191	H	0.528344	0.090599	0.929988
	C1192	C	0.525544	0.086600	0.942256
	C1193	C	0.521429	0.070249	0.944751
	C1194	C	0.513227	0.037984	0.952003
	C1195	C	0.513928	0.049187	0.964122
	C1196	C	0.516411	0.041659	0.935414
	C1197	C	0.515523	0.029685	0.923134
	H1198	H	0.512195	0.017509	0.926608
	H1199	H	0.518323	0.024236	0.897730
	C1200	C	0.518913	0.033396	0.907148
	C1201	C	0.523324	0.049405	0.902855
	H1202	H	0.527452	0.073505	0.911580
	C1203	C	0.524082	0.061335	0.914999
	C1204	C	0.520694	0.058038	0.931561
	C1205	C	0.537745	0.060979	0.857080
	C1206	C	0.534140	0.051815	0.842883
	H1207	H	0.526281	0.041415	0.843895
	H1208	H	0.538109	0.049238	0.817165
	C1209	C	0.540691	0.056162	0.828085
	C1210	C	0.551034	0.069686	0.826810
	C1211	C	0.554733	0.079404	0.840872
	C1212	C	0.547839	0.074498	0.855810
	H1213	H	0.550579	0.081342	0.866729
	C1214	C	0.565363	0.093654	0.839198
	C1215	C	0.568914	0.104410	0.852061
	H1216	H	0.563419	0.102381	0.863882
	C1217	C	0.579049	0.117812	0.849981
	C1218	C	0.586282	0.120715	0.834535
	H1219	H	0.594179	0.131026	0.833026
	H1220	H	0.588358	0.112685	0.809775
	C1221	C	0.583059	0.110556	0.821682
	C1222	C	0.572536	0.097246	0.823665
	C1223	C	0.568485	0.087024	0.810428
	C1224	C	0.558218	0.074268	0.811782
	H1225	H	0.531053	0.155734	0.965354
	C1226	C	0.538479	0.156937	0.954536
	C1227	C	0.541572	0.143108	0.944770
	H1228	H	0.553499	0.133993	0.923423
	C1229	C	0.551120	0.144630	0.930724
	C1230	C	0.557896	0.159470	0.925824
	H1231	H	0.542717	0.182269	0.957582
	C1232	C	0.544941	0.171629	0.950218
	C1233	C	0.554680	0.173170	0.936120
	H1234	H	0.565157	0.137322	0.901465
	C1235	C	0.570737	0.148986	0.899528
	C1236	C	0.567878	0.161397	0.910971
	C1237	C	0.580220	0.151363	0.885542
	C1238	C	0.587570	0.166604	0.882773
	H1239	H	0.595000	0.168324	0.872030
	H1240	H	0.590350	0.190783	0.891549
	C1241	C	0.585005	0.179015	0.893589
	C1242	C	0.575027	0.176776	0.907430
	C1243	C	0.561624	0.188131	0.931436
	C1244	C	0.571402	0.189663	0.918171
	C1245	C	0.581876	0.138743	0.873909
	C1246	C	0.581516	0.128681	0.863172
	C1247	C	0.535259	0.127692	0.948992
	C1248	C	0.530701	0.114087	0.951925
	C1249	C	0.531483	0.056607	0.872637
	C1250	C	0.527231	0.053288	0.886402
	B1251	B	0.507643	0.025704	0.975313
	O1252	O	0.510422	0.041910	0.978863
	O1253	O	0.509251	0.023176	0.958581
	B1254	B	0.566066	0.075958	0.785991
	O1255	O	0.556423	0.067081	0.796646
	O1256	O	0.573678	0.088348	0.794516
	B1257	B	0.568722	0.213821	0.929284
	O1258	O	0.576290	0.205458	0.916674
	O1259	O	0.559823	0.203076	0.938779
	H1260	H	0.457227	0.682300	0.042415
	C1261	C	0.455012	0.671661	0.049782
	C1262	C	0.445279	0.673199	0.063884
	H1263	H	0.468900	0.655768	0.034641
	C1264	C	0.461479	0.656969	0.045462
	C1265	C	0.458397	0.643140	0.055231
	H1266	H	0.446484	0.634023	0.076586
	C1267	C	0.448856	0.644660	0.069283
	C1268	C	0.442074	0.659498	0.074184
	C1269	C	0.428553	0.689687	0.081836
	C1270	C	0.438329	0.688158	0.068568
	C1271	C	0.424940	0.676800	0.092581
	C1272	C	0.414966	0.679037	0.106426
	H1273	H	0.409615	0.690803	0.108464
	H1274	H	0.404987	0.668346	0.127991
	C1275	C	0.412413	0.666627	0.117245
	C1276	C	0.419772	0.651389	0.114477
	H1277	H	0.434837	0.637351	0.098551
	C1278	C	0.429251	0.649013	0.100488
	C1279	C	0.432097	0.661423	0.089040
	C1280	C	0.420965	0.617837	0.150040
	C1281	C	0.413747	0.620747	0.165492
	H1282	H	0.405861	0.631067	0.167008
	H1283	H	0.411686	0.612718	0.190254
	C1284	C	0.416973	0.610584	0.178343
	C1285	C	0.427482	0.597263	0.176351
	C1286	C	0.434640	0.593665	0.160813
	C1287	C	0.431087	0.604425	0.147953
	H1288	H	0.436571	0.602390	0.136127
	C1289	C	0.445256	0.579403	0.159131
	C1290	C	0.452138	0.574496	0.144189
	H1291	H	0.449401	0.581348	0.133273
	C1292	C	0.462219	0.560966	0.142909
	C1293	C	0.465820	0.551790	0.157101
	H1294	H	0.473668	0.541381	0.156081
	H1295	H	0.461861	0.549209	0.182820
	C1296	C	0.459281	0.556139	0.171904
	C1297	C	0.448954	0.569677	0.173189
	C1298	C	0.441784	0.574264	0.188223
	C1299	C	0.431533	0.587034	0.189585
	H1300	H	0.476953	0.601483	0.018900
	C1301	C	0.477445	0.592783	0.028760
	C1302	C	0.473780	0.597846	0.044906
	H1303	H	0.471618	0.590623	0.070001
	C1304	C	0.474417	0.586626	0.057732
	C1305	C	0.478522	0.570273	0.055232
	H1306	H	0.484294	0.572921	0.013543
	C1307	C	0.481508	0.576969	0.025807
	C1308	C	0.482055	0.565619	0.038699
	H1309	H	0.472508	0.573521	0.088406
	C1310	C	0.475866	0.561349	0.084982
	C1311	C	0.479248	0.558056	0.068418
	C1312	C	0.476615	0.549412	0.097121
	C1313	C	0.481011	0.533400	0.092821
	H1314	H	0.481593	0.524235	0.102235
	H1315	H	0.487713	0.517515	0.073353
	C1316	C	0.484397	0.529693	0.076833
	C1317	C	0.483517	0.541674	0.064558
	C1318	C	0.486005	0.549212	0.035852
	C1319	C	0.486697	0.538004	0.047968
	C1320	C	0.472715	0.553287	0.113577
	C1321	C	0.468470	0.556596	0.127347
	C1322	C	0.469273	0.614120	0.048071
	C1323	C	0.464714	0.627725	0.051007
	C1324	C	0.418494	0.628708	0.136850
	C1325	C	0.418127	0.638770	0.126113
	B1326	B	0.431215	0.713844	0.070718
	O1327	O	0.440119	0.703103	0.061223
	O1328	O	0.423655	0.705480	0.083331
	B1329	B	0.433953	0.575959	0.214019
	O1330	O	0.426352	0.588363	0.205500
	O1331	O	0.443579	0.567071	0.203357
	B1332	B	0.492270	0.525726	0.024654
	O1333	O	0.490659	0.523193	0.041385
	O1334	O	0.489504	0.541936	0.021109
	F1335	F	0.407086	0.911100	0.265779
	C1336	C	0.418207	0.920297	0.258362
	C1337	C	0.420455	0.918051	0.241700
	F1338	F	0.411278	0.906913	0.234288
	C1339	C	0.431725	0.926992	0.232708
	C1340	C	0.440628	0.938328	0.241662
	F1341	F	0.451711	0.947459	0.234134
	C1342	C	0.438456	0.940497	0.258394
	F1343	F	0.447574	0.951591	0.265920
	C1344	C	0.427128	0.931583	0.267350
	F1345	F	0.502117	-0.008210	-0.032019
	C1346	C	0.501135	-0.003790	-0.016307
	C1347	C	0.497634	-0.015717	-0.004875
	F1348	F	0.495495	-0.030811	-0.010353
	C1349	C	0.496331	-0.012387	0.011844
	C1350	C	0.498790	0.003762	0.016277
	F1351	F	0.497808	0.008183	0.031990
	C1352	C	0.502291	0.015689	0.004846
	F1353	F	0.504430	0.030783	0.010324
	C1354	C	0.503595	0.012358	-0.011874
	F1355	F	0.410724	0.765822	0.090132
	C1356	C	0.420527	0.758388	0.079488
	C1357	C	0.420528	0.741623	0.079483
	F1358	F	0.410724	0.734185	0.090123
	C1359	C	0.430340	0.732586	0.068971
	C1360	C	0.439535	0.741593	0.057866
	F1361	F	0.448888	0.734010	0.046945
	C1362	C	0.439535	0.758426	0.057870
	F1363	F	0.448887	0.766014	0.046953
	C1364	C	0.430340	0.767428	0.068980
	H1365	H	0.484289	0.927081	0.013551
	C1366	C	0.481506	0.923032	0.025816
	C1367	C	0.482061	0.934381	0.038708
	H1368	H	0.476943	0.898521	0.018911
	C1369	C	0.477441	0.907220	0.028771
	C1370	C	0.473780	0.902158	0.044918
	H1371	H	0.471628	0.909380	0.070014
	C1372	C	0.474424	0.913376	0.057744
	C1373	C	0.478532	0.929727	0.055242
	C1374	C	0.486715	0.961993	0.047975
	C1375	C	0.486016	0.950786	0.035860
	C1376	C	0.483538	0.958323	0.064567
	C1377	C	0.484425	0.970302	0.076841
	H1378	H	0.487745	0.982479	0.073361
	H1379	H	0.481630	0.975760	0.102244
	C1380	C	0.481042	0.966596	0.092830
	C1381	C	0.476641	0.950586	0.097132
	H1382	H	0.472525	0.926480	0.088418
	C1383	C	0.475887	0.938650	0.084993
	C1384	C	0.479266	0.941943	0.068428
	C1385	C	0.462237	0.939029	0.142916
	C1386	C	0.465841	0.948199	0.157110
	H1387	H	0.473697	0.958601	0.156092
	H1388	H	0.461877	0.950782	0.182828
	C1389	C	0.459294	0.943855	0.171911
	C1390	C	0.448956	0.930328	0.173191
	C1391	C	0.445255	0.920605	0.159133
	C1392	C	0.452146	0.925508	0.144193
	H1393	H	0.449406	0.918660	0.133276
	C1394	C	0.434628	0.906353	0.160812
	C1395	C	0.431076	0.895593	0.147953
	H1396	H	0.436569	0.897620	0.136130
	C1397	C	0.420943	0.882191	0.150038
	C1398	C	0.413713	0.879291	0.165486
	H1399	H	0.405817	0.868980	0.167000
	H1400	H	0.411642	0.887327	0.190245
	C1401	C	0.416938	0.889454	0.178336
	C1402	C	0.427460	0.902763	0.176347
	C1403	C	0.431513	0.912989	0.189582
	C1404	C	0.441776	0.925748	0.188223
	H1405	H	0.468897	0.844240	0.034658
	C1406	C	0.461475	0.843040	0.045479
	C1407	C	0.458392	0.856869	0.055247
	H1408	H	0.446476	0.865989	0.076599
	C1409	C	0.448848	0.855351	0.069297
	C1410	C	0.442066	0.840515	0.074199
	H1411	H	0.457224	0.817710	0.042433
	C1412	C	0.455007	0.828350	0.049798
	C1413	C	0.445273	0.826813	0.063900
	H1414	H	0.434821	0.862665	0.098559
	C1415	C	0.429238	0.851003	0.100498
	C1416	C	0.432088	0.838590	0.089054
	C1417	C	0.419758	0.848629	0.114487
	C1418	C	0.412403	0.833391	0.117258
	H1419	H	0.404977	0.831673	0.128004
	H1420	H	0.409611	0.809213	0.108483
	C1421	C	0.414960	0.820979	0.106442
	C1422	C	0.424933	0.823215	0.092597
	C1423	C	0.438324	0.811856	0.068586
	C1424	C	0.428549	0.810326	0.081853
	C1425	C	0.418109	0.861251	0.126119
	C1426	C	0.418474	0.871317	0.136852
	C1427	C	0.464710	0.872282	0.051023
	C1428	C	0.469271	0.885885	0.048086
	C1429	C	0.468494	0.943398	0.127356
	C1430	C	0.472742	0.946709	0.113588
	B1431	B	0.492287	0.974268	0.024660
	O1432	O	0.489513	0.958061	0.021116
	O1433	O	0.490681	0.976801	0.041391
	B1434	B	0.433935	0.924057	0.214017
	O1435	O	0.443571	0.932938	0.203358
	O1436	O	0.426325	0.911664	0.205494
	B1437	B	0.431213	0.786170	0.070734
	O1438	O	0.423653	0.794533	0.083348
	O1439	O	0.440116	0.796912	0.061240
