data_Molecule from CHK

_cell_length_a		119.465368
_cell_length_b		118.629536
_cell_length_c		118.318691
_cell_angle_alpha	87.833730
_cell_angle_beta	85.717380
_cell_angle_gamma	86.307464
_symmetry_space_group_name_H-M	'P 1'
_symmetry_Int_Tables_number		1

loop_
	_symmetry_equiv_pos_as_xyz
	x,y,z

loop_
	_atom_site_label
	_atom_site_type_symbol
	_atom_site_fract_x
	_atom_site_fract_y
	_atom_site_fract_z
	N0	N	0.016579	-0.060379	0.250129
	C1	C	0.005520	-0.055912	0.251066
	C2	C	0.006376	-0.044056	0.251519
	N3	N	0.017555	-0.041662	0.250969
	C4	C	-0.003376	-0.036599	0.252658
	C5	C	-0.002830	-0.024148	0.253660
	C6	C	-0.013568	-0.041830	0.252907
	H7	H	-0.021345	-0.036595	0.253503
	C8	C	-0.014208	-0.053542	0.251920
	H9	H	-0.022419	-0.056903	0.251774
	C10	C	-0.004695	-0.061046	0.250728
	C11	C	-0.005380	-0.073412	0.249584
	C12	C	-0.011047	-0.017722	0.260219
	C13	C	-0.012945	-0.079601	0.256613
	C14	C	0.001442	-0.079331	0.241293
	C15	C	0.006064	-0.018347	0.248207
	C16	C	0.006768	-0.006768	0.249291
	H17	H	0.012528	-0.022964	0.243033
	C18	C	0.000901	-0.090939	0.240209
	H19	H	0.006999	-0.074664	0.235446
	C20	C	-0.001419	-0.000511	0.255887
	H21	H	0.013737	-0.002442	0.245102
	C22	C	-0.010392	-0.006118	0.261303
	H23	H	-0.017876	-0.021922	0.264772
	C24	C	-0.013543	-0.091207	0.255547
	H25	H	-0.018285	-0.075273	0.263106
	C26	C	-0.006623	-0.096992	0.247340
	H27	H	0.005992	-0.095307	0.233573
	H28	H	-0.019370	-0.095937	0.261032
	H29	H	-0.016633	-0.001447	0.266702
	C30	C	0.023418	-0.051391	0.250060
	H31	H	0.019166	-0.068609	0.251118
	C32	C	0.035773	-0.052772	0.249321
	C33	C	0.041904	-0.044386	0.253604
	C34	C	0.053605	-0.045321	0.252919
	H35	H	0.037330	-0.037118	0.257427
	C36	C	0.041675	-0.062178	0.244381
	C37	C	0.059458	-0.054680	0.247911
	H38	H	0.058246	-0.038894	0.256428
	C39	C	0.053389	-0.063124	0.243738
	H40	H	0.037111	-0.068619	0.240816
	H41	H	0.058029	-0.070355	0.239938
	C42	C	-0.000379	0.011989	0.256766
	O43	O	0.008630	0.015966	0.257567
	N44	N	-0.010465	0.018642	0.256424
	H45	H	-0.017539	0.015017	0.254501
	C46	C	-0.007100	-0.109585	0.246599
	O47	O	-0.015921	-0.114104	0.246648
	N48	N	0.003398	-0.115527	0.246421
	H49	H	0.010311	-0.111242	0.247552
	C50	C	0.072129	-0.055745	0.246941
	O51	O	0.077328	-0.064690	0.248646
	N52	N	0.077039	-0.045875	0.242857
	H53	H	0.072069	-0.039515	0.239444
	C54	C	-0.021393	0.107660	0.265060
	C55	C	-0.011254	0.101027	0.265539
	C56	C	-0.010808	0.089306	0.264299
	C57	C	-0.020876	0.083956	0.262504
	C58	C	-0.031209	0.090660	0.262013
	C59	C	-0.031267	0.102353	0.263300
	H60	H	-0.003610	0.105075	0.266893
	H61	H	-0.039096	0.107481	0.262926
	C62	C	-0.020616	0.072054	0.261205
	C63	C	-0.010278	0.065361	0.261692
	C64	C	-0.010208	0.053677	0.260389
	C65	C	-0.020066	0.048352	0.258610
	C66	C	-0.030216	0.054969	0.258136
	C67	C	-0.030677	0.066694	0.259398
	H68	H	-0.002361	0.048573	0.260751
	H69	H	-0.037847	0.050906	0.256762
	C70	C	-0.041231	0.085042	0.260188
	C71	C	-0.040980	0.073663	0.258946
	H72	H	-0.049060	0.090160	0.259821
	H73	H	-0.048621	0.069611	0.257576
	C74	C	-0.000501	0.082345	0.264758
	C75	C	-0.000251	0.070969	0.263519
	H76	H	0.007139	0.086400	0.266124
	H77	H	0.007576	0.065848	0.263884
	N78	N	-0.030696	0.126252	0.265975
	C79	C	-0.021581	0.119985	0.266363
	H80	H	-0.013533	0.123556	0.267644
	N81	N	-0.010514	0.029950	0.257706
	C82	C	-0.019739	0.036019	0.257264
	H83	H	-0.027691	0.032324	0.255865
	C84	C	0.164965	-0.038040	0.246080
	C85	C	0.158207	-0.033421	0.237629
	C86	C	0.146720	-0.035239	0.237913
	C87	C	0.141755	-0.041997	0.246956
	C88	C	0.148601	-0.046779	0.255531
	C89	C	0.160042	-0.044691	0.254943
	H90	H	0.161958	-0.028278	0.230772
	H91	H	0.165262	-0.048262	0.261469
	C92	C	0.130076	-0.043898	0.247446
	C93	C	0.123218	-0.039020	0.238927
	C94	C	0.111729	-0.040887	0.239644
	C95	C	0.106773	-0.047492	0.248525
	C96	C	0.113575	-0.052350	0.256829
	C97	C	0.125097	-0.050655	0.256483
	H98	H	0.106505	-0.037174	0.233198
	H99	H	0.109783	-0.057484	0.263673
	C100	C	0.143375	-0.053594	0.264523
	C101	C	0.132219	-0.055450	0.264966
	H102	H	0.148599	-0.057253	0.270997
	H103	H	0.128451	-0.060609	0.271804
	C104	C	0.139623	-0.030497	0.229386
	C105	C	0.128454	-0.032283	0.229876
	H106	H	0.143404	-0.025400	0.222508
	H107	H	0.123232	-0.028637	0.223397
	N108	N	0.183317	-0.039435	0.253404
	C109	C	0.176988	-0.035800	0.245599
	H110	H	0.180251	-0.030704	0.238285
	N111	N	0.088185	-0.044262	0.242139
	C112	C	0.094615	-0.049224	0.249223
	H113	H	0.091412	-0.054597	0.256335
	C114	C	0.023136	0.796077	0.239001
	C115	C	0.012436	0.801598	0.238298
	C116	C	0.010732	0.813329	0.239297
	C117	C	0.020074	0.819838	0.241037
	C118	C	0.030976	0.814268	0.241710
	C119	C	0.032288	0.802529	0.240692
	H120	H	0.005344	0.796666	0.236990
	H121	H	0.040561	0.798278	0.241225
	C122	C	0.018538	0.831764	0.242118
	C123	C	0.007630	0.837338	0.241495
	C124	C	0.006306	0.849068	0.242629
	C125	C	0.015465	0.855501	0.244346
	C126	C	0.026179	0.849980	0.244925
	C127	C	0.027885	0.838263	0.243860
	H128	H	-0.001972	0.853331	0.242185
	H129	H	0.033280	0.854894	0.246254
	C130	C	0.040260	0.821027	0.243448
	C131	C	0.038794	0.832428	0.244464
	H132	H	0.048526	0.816765	0.243933
	H133	H	0.045892	0.837356	0.245773
	C134	C	-0.000168	0.819177	0.238663
	C135	C	-0.001640	0.830576	0.239714
	H136	H	-0.007263	0.814254	0.237328
	H137	H	-0.009907	0.834838	0.239228
	N138	N	0.034391	0.778560	0.238992
	C139	C	0.024727	0.783703	0.238068
	H140	H	0.017284	0.779132	0.236638
	N141	N	0.004258	0.873105	0.245251
	C142	C	0.013946	0.867842	0.245547
	H143	H	0.021509	0.872316	0.246771
	N144	N	-0.028954	0.216386	0.253347
	C145	C	-0.029783	0.211543	0.264225
	C146	C	-0.031611	0.200010	0.262645
	N147	N	-0.031906	0.198171	0.251220
	C148	C	-0.032854	0.192302	0.272042
	C149	C	-0.034750	0.180113	0.270812
	C150	C	-0.031661	0.196876	0.282591
	H151	H	-0.032711	0.191495	0.290150
	C152	C	-0.029452	0.208228	0.283911
	H153	H	-0.028427	0.211066	0.292353
	C154	C	-0.028163	0.215973	0.274763
	C155	C	-0.025687	0.227936	0.276173
	C156	C	-0.030406	0.171684	0.278265
	C157	C	-0.031566	0.234505	0.284583
	C158	C	-0.017234	0.233049	0.269238
	C159	C	-0.040991	0.176559	0.262125
	C160	C	-0.042820	0.165194	0.260937
	H161	H	-0.044620	0.182810	0.256336
	C162	C	-0.014890	0.244274	0.270501
	H163	H	-0.012258	0.228010	0.263013
	C164	C	-0.038424	0.156930	0.268390
	H165	H	-0.047711	0.162581	0.254241
	C166	C	-0.032139	0.160295	0.277053
	H167	H	-0.025358	0.174043	0.284915
	C168	C	-0.029239	0.245726	0.285900
	H169	H	-0.038156	0.230801	0.290028
	C170	C	-0.020879	0.250723	0.278873
	H171	H	-0.008133	0.247979	0.265307
	H172	H	-0.033839	0.250755	0.292385
	H173	H	-0.028853	0.153974	0.282994
	C174	C	-0.030158	0.207897	0.245903
	H175	H	-0.029168	0.224732	0.251270
	C176	C	-0.030261	0.210063	0.233595
	C177	C	-0.037287	0.204116	0.227296
	C178	C	-0.037482	0.206047	0.215633
	H179	H	-0.042522	0.197947	0.231673
	C180	C	-0.023431	0.217994	0.227925
	C181	C	-0.030599	0.213885	0.209977
	H182	H	-0.042940	0.201495	0.210748
	C183	C	-0.023613	0.219891	0.216245
	H184	H	-0.017833	0.222479	0.232690
	H185	H	-0.018478	0.226171	0.211950
	C186	C	-0.040088	0.144682	0.266609
	O187	O	-0.049133	0.141369	0.264693
	N188	N	-0.030337	0.137553	0.267153
	H189	H	-0.022855	0.141072	0.267668
	C190	C	-0.018766	0.262954	0.280195
	O191	O	-0.017888	0.266866	0.289383
	N192	N	-0.018449	0.269397	0.270051
	H193	H	-0.020391	0.265777	0.262852
	C194	C	-0.030938	0.215708	0.197317
	O195	O	-0.039694	0.215845	0.192740
	N196	N	-0.020407	0.217016	0.191613
	H197	H	-0.013405	0.214515	0.195705
	N198	N	0.253658	-0.022941	0.259456
	C199	C	0.263143	-0.018664	0.253726
	C200	C	0.261505	-0.019854	0.242073
	N201	N	0.251023	-0.023766	0.240993
	C202	C	0.270044	-0.017413	0.233525
	C203	C	0.268595	-0.018511	0.221208
	C204	C	0.280014	-0.014097	0.237539
	H205	H	0.286809	-0.011898	0.231441
	C206	C	0.281529	-0.013151	0.249129
	H207	H	0.289425	-0.010280	0.251524
	C208	C	0.273177	-0.015397	0.257712
	C209	C	0.274704	-0.014111	0.269950
	C210	C	0.277632	-0.021902	0.213514
	C211	C	0.284865	-0.017556	0.274679
	C212	C	0.265994	-0.009326	0.277254
	C213	C	0.258034	-0.016293	0.216809
	C214	C	0.256561	-0.017393	0.205345
	H215	H	0.250872	-0.013652	0.222451
	C216	C	0.267327	-0.008105	0.288739
	H217	H	0.258128	-0.006379	0.273813
	C218	C	0.265609	-0.020783	0.197803
	H219	H	0.248341	-0.015708	0.202106
	C220	C	0.276196	-0.023002	0.202023
	H221	H	0.285825	-0.023978	0.216631
	C222	C	0.286262	-0.016289	0.286148
	H223	H	0.291662	-0.021531	0.269356
	C224	C	0.277589	-0.011351	0.293274
	H225	H	0.260361	-0.004687	0.294213
	H226	H	0.294084	-0.019149	0.289740
	H227	H	0.283223	-0.025984	0.196369
	C228	C	0.246482	-0.025380	0.251350
	H229	H	0.252858	-0.025507	0.267707
	C230	C	0.235152	-0.029319	0.254164
	C231	C	0.230081	-0.035356	0.246155
	C232	C	0.219237	-0.038913	0.248393
	H233	H	0.234772	-0.037141	0.238143
	C234	C	0.229133	-0.027068	0.264563
	C235	C	0.213197	-0.036486	0.258706
	H236	H	0.215477	-0.043742	0.242241
	C237	C	0.218290	-0.030658	0.266802
	H238	H	0.232829	-0.022284	0.270786
	H239	H	0.213556	-0.028944	0.274798
	C240	C	0.263663	-0.021669	0.185457
	O241	O	0.255110	-0.025209	0.182391
	N242	N	0.272307	-0.017983	0.177843
	H243	H	0.278711	-0.014008	0.180846
	C244	C	0.279230	-0.010416	0.305702
	O245	O	0.284951	-0.017396	0.310827
	N246	N	0.273970	-0.000761	0.310671
	H247	H	0.270659	0.005527	0.305620
	C248	C	0.201304	-0.039894	0.261153
	O249	O	0.198001	-0.043917	0.270277
	N250	N	0.194290	-0.036921	0.252456
	H251	H	0.197474	-0.032596	0.245478
	N252	N	0.043654	0.709434	0.262382
	C253	C	0.046368	0.706013	0.251366
	C254	C	0.046559	0.694028	0.252152
	N255	N	0.044014	0.690532	0.263259
	C256	C	0.049087	0.687498	0.242394
	C257	C	0.049577	0.674897	0.242827
	C258	C	0.050708	0.693772	0.232207
	H259	H	0.052826	0.689281	0.224458
	C260	C	0.050065	0.705650	0.231581
	H261	H	0.051282	0.709901	0.223351
	C262	C	0.047643	0.712265	0.241102
	C263	C	0.047008	0.724822	0.240487
	C264	C	0.046121	0.668716	0.233920
	C265	C	0.055360	0.730802	0.234329
	C266	C	0.038096	0.731161	0.246161
	C267	C	0.053650	0.668691	0.252186
	C268	C	0.054334	0.656916	0.252606
	H269	H	0.056519	0.673166	0.259126
	C270	C	0.037619	0.742941	0.245835
	H271	H	0.031433	0.726736	0.250782
	C272	C	0.050891	0.650906	0.243682
	H273	H	0.057597	0.652227	0.259821
	C274	C	0.046676	0.656932	0.234359
	H275	H	0.042709	0.673202	0.226691
	C276	C	0.054918	0.742578	0.233973
	H277	H	0.062440	0.726135	0.230046
	C278	C	0.045959	0.748781	0.239577
	H279	H	0.030832	0.747648	0.250507
	H280	H	0.061539	0.747119	0.229412
	H281	H	0.044111	0.652319	0.227354
	C282	C	0.042213	0.699761	0.269106
	H283	H	0.044463	0.717213	0.265316
	C284	C	0.039212	0.700122	0.281372
	C285	C	0.043004	0.691254	0.288579
	C286	C	0.040214	0.691435	0.300211
	H287	H	0.048111	0.684230	0.284915
	C288	C	0.032549	0.709179	0.286109
	C289	C	0.033493	0.700423	0.304902
	H290	H	0.043185	0.684620	0.305808
	C291	C	0.029741	0.709332	0.297745
	H292	H	0.029418	0.715984	0.280609
	H293	H	0.024789	0.716457	0.301369
	C294	C	0.051327	0.638217	0.244531
	O295	O	0.059674	0.632605	0.247066
	N296	N	0.041293	0.633514	0.242372
	H297	H	0.034357	0.638770	0.241287
	C298	C	0.045989	0.761467	0.239517
	O299	O	0.054561	0.766279	0.240190
	N300	N	0.035526	0.767164	0.238209
	H301	H	0.028974	0.762718	0.236257
	C302	C	0.030561	0.700384	0.317524
	O303	O	0.037314	0.697011	0.324227
	N304	N	0.019524	0.704361	0.320574
	H305	H	0.013771	0.704607	0.314611
	C306	C	-0.015713	0.239401	0.103437
	C307	C	-0.007271	0.233486	0.109338
	C308	C	-0.008708	0.231160	0.121034
	C309	C	-0.018965	0.234912	0.127125
	C310	C	-0.027551	0.240985	0.121178
	C311	C	-0.025767	0.243096	0.109476
	H312	H	0.000501	0.230609	0.104719
	H313	H	-0.032293	0.247661	0.104922
	C314	C	-0.020638	0.232573	0.139005
	C315	C	-0.012087	0.226422	0.144934
	C316	C	-0.013945	0.224135	0.156599
	C317	C	-0.024023	0.227772	0.162633
	C318	C	-0.032388	0.233849	0.156764
	C319	C	-0.030905	0.236297	0.145092
	H320	H	-0.007490	0.219421	0.161106
	H321	H	-0.040202	0.236614	0.161385
	C322	C	-0.037806	0.244678	0.127532
	C323	C	-0.039397	0.242457	0.138892
	H324	H	-0.044300	0.249304	0.122997
	H325	H	-0.047185	0.245291	0.143516
	C326	C	-0.000198	0.225035	0.127241
	C327	C	-0.001808	0.222776	0.138591
	H328	H	0.007591	0.222207	0.122620
	H329	H	0.004677	0.218130	0.143117
	N330	N	-0.021719	0.246604	0.085433
	C331	C	-0.014037	0.241534	0.091087
	H332	H	-0.005961	0.238418	0.086931
	N333	N	-0.018514	0.219508	0.180396
	C334	C	-0.025902	0.225250	0.174912
	H335	H	-0.033847	0.228763	0.178986
	C336	C	-0.003401	0.356593	0.256805
	C337	C	-0.003091	0.350440	0.267170
	C338	C	-0.005086	0.338915	0.267983
	C339	C	-0.007475	0.333275	0.258061
	C340	C	-0.007753	0.339483	0.247494
	C341	C	-0.005718	0.350989	0.247074
	H342	H	-0.001301	0.354716	0.274705
	H343	H	-0.005951	0.355731	0.239061
	C344	C	-0.009595	0.321582	0.258697
	C345	C	-0.009363	0.315380	0.269270
	C346	C	-0.011533	0.303903	0.269712
	C347	C	-0.013930	0.298329	0.259991
	C348	C	-0.014120	0.304462	0.249606
	C349	C	-0.012010	0.315955	0.248776
	H350	H	-0.011390	0.299171	0.277736
	H351	H	-0.015969	0.300212	0.242076
	C352	C	-0.010170	0.333591	0.237615
	C353	C	-0.012190	0.322414	0.238221
	H354	H	-0.010350	0.338333	0.229605
	H355	H	-0.014002	0.318147	0.230686
	C356	C	-0.004861	0.332439	0.278526
	C357	C	-0.006896	0.321264	0.279136
	H358	H	-0.003029	0.336703	0.286057
	H359	H	-0.006706	0.316522	0.287145
	N360	N	-0.001872	0.374512	0.246830
	C361	C	-0.001432	0.368755	0.256183
	H362	H	0.000339	0.372642	0.264080
	N363	N	-0.016221	0.280475	0.269978
	C364	C	-0.016254	0.286255	0.260611
	H365	H	-0.018025	0.282446	0.252669
	C366	C	0.265126	0.018908	0.398077
	C367	C	0.272959	0.010889	0.393093
	C368	C	0.273687	0.009170	0.381401
	C369	C	0.266397	0.015796	0.374358
	C370	C	0.258504	0.024047	0.379369
	C371	C	0.257991	0.025403	0.391105
	H372	H	0.278472	0.005837	0.398430
	H373	H	0.251939	0.031602	0.394947
	C374	C	0.266934	0.014142	0.362465
	C375	C	0.274700	0.005766	0.357476
	C376	C	0.274958	0.004159	0.345790
	C377	C	0.267824	0.010664	0.338826
	C378	C	0.260282	0.018970	0.343758
	C379	C	0.259658	0.020787	0.355425
	H380	H	0.280788	-0.002255	0.341982
	H381	H	0.254741	0.024003	0.338432
	C382	C	0.251297	0.030661	0.372068
	C383	C	0.251863	0.029134	0.360689
	H384	H	0.245348	0.036948	0.375900
	H385	H	0.246357	0.034196	0.355349
	C386	C	0.281524	0.000868	0.376122
	C387	C	0.281984	-0.000767	0.364765
	H388	H	0.287080	-0.004147	0.381451
	H389	H	0.287902	-0.007084	0.360939
	N390	N	0.256577	0.026896	0.415241
	C391	C	0.264311	0.020354	0.410444
	H392	H	0.270460	0.015403	0.415360
	N393	N	0.274174	0.000635	0.321989
	C394	C	0.268101	0.008775	0.326559
	H395	H	0.262657	0.014508	0.321555
	C396	C	0.275639	-0.017485	0.087709
	C397	C	0.266711	-0.020940	0.095173
	C398	C	0.267206	-0.020742	0.106957
	C399	C	0.276989	-0.016924	0.111508
	C400	C	0.286096	-0.013416	0.103957
	C401	C	0.285251	-0.013778	0.092236
	H402	H	0.259279	-0.023817	0.091729
	H403	H	0.292150	-0.011113	0.086470
	C404	C	0.277648	-0.016587	0.123458
	C405	C	0.268536	-0.020088	0.131005
	C406	C	0.269344	-0.019654	0.142723
	C407	C	0.278901	-0.015829	0.147256
	C408	C	0.287847	-0.012406	0.139799
	C409	C	0.287408	-0.012721	0.128013
	H410	H	0.262433	-0.022305	0.148480
	H411	H	0.295245	-0.009458	0.143249
	C412	C	0.295855	-0.009596	0.108774
	C413	C	0.296478	-0.009259	0.120198
	H414	H	0.302759	-0.006959	0.103010
	H415	H	0.303897	-0.006347	0.123641
	C416	C	0.258153	-0.024250	0.114770
	C417	C	0.258790	-0.023944	0.126192
	H418	H	0.250740	-0.027173	0.111324
	H419	H	0.251902	-0.026615	0.131957
	N420	N	0.282947	-0.014700	0.068378
	C421	C	0.274860	-0.017693	0.075338
	H422	H	0.267029	-0.020481	0.072372
	N423	N	0.271478	-0.018610	0.166519
	C424	C	0.279514	-0.015370	0.159635
	H425	H	0.287139	-0.012170	0.162656
	C426	C	0.017207	0.711673	0.350465
	C427	C	0.024460	0.714903	0.358411
	C428	C	0.020570	0.717114	0.369617
	C429	C	0.008953	0.716084	0.373067
	C430	C	0.001537	0.712790	0.365030
	C431	C	0.005797	0.710644	0.353914
	H432	H	0.033284	0.715642	0.355794
	H433	H	0.000199	0.708116	0.347800
	C434	C	0.004808	0.718304	0.384416
	C435	C	0.012240	0.721573	0.392447
	C436	C	0.007993	0.723700	0.403561
	C437	C	-0.003418	0.722708	0.407025
	C438	C	-0.010699	0.719499	0.399095
	C439	C	-0.006808	0.717277	0.387881
	H440	H	0.013635	0.726163	0.409679
	H441	H	-0.019507	0.718710	0.401725
	C442	C	-0.010136	0.711812	0.368749
	C443	C	-0.014100	0.713947	0.379596
	H444	H	-0.015748	0.709302	0.362638
	H445	H	-0.022912	0.713157	0.382220
	C446	C	0.027874	0.720425	0.377896
	C447	C	0.023915	0.722542	0.388744
	H448	H	0.036692	0.721187	0.375273
	H449	H	0.029531	0.725016	0.394873
	N450	N	0.015262	0.706460	0.331279
	C451	C	0.021624	0.709458	0.338727
	H452	H	0.030567	0.710819	0.336757
	N453	N	-0.001002	0.727787	0.426081
	C454	C	-0.007643	0.724966	0.418811
	H455	H	-0.016629	0.724055	0.421049
	C456	C	0.023948	0.546573	0.243109
	C457	C	0.034483	0.550847	0.244273
	C458	C	0.035869	0.562499	0.243977
	C459	C	0.026379	0.570216	0.242425
	C460	C	0.015654	0.565911	0.241223
	C461	C	0.014650	0.554207	0.241602
	H462	H	0.041682	0.544997	0.245451
	H463	H	0.006507	0.550911	0.240711
	C464	C	0.027586	0.582092	0.242094
	C465	C	0.038300	0.586405	0.243340
	C466	C	0.039287	0.598114	0.243025
	C467	C	0.029988	0.605738	0.241487
	C468	C	0.019474	0.601453	0.240243
	C469	C	0.018095	0.589804	0.240532
	H470	H	0.047408	0.601426	0.243999
	H471	H	0.012269	0.607296	0.239069
	C472	C	0.006223	0.573872	0.239658
	C473	C	0.007382	0.585222	0.239321
	H474	H	-0.001901	0.570560	0.238745
	H475	H	0.000178	0.591067	0.238138
	C476	C	0.046579	0.567086	0.245190
	C477	C	0.047730	0.578439	0.244894
	H478	H	0.053786	0.561243	0.246371
	H479	H	0.055850	0.581751	0.245835
	N480	N	0.013051	0.530315	0.242607
	C481	C	0.022660	0.534278	0.243461
	H482	H	0.030256	0.528729	0.244476
	N483	N	0.040637	0.622137	0.242596
	C484	C	0.031187	0.618042	0.241226
	H485	H	0.023603	0.623522	0.239904
	N486	N	-0.023111	0.254461	0.010988
	C487	C	-0.016904	0.253963	0.000588
	C488	C	-0.005508	0.253595	0.003334
	N489	N	-0.005051	0.253777	0.014945
	C490	C	0.003396	0.253317	-0.005289
	C491	C	0.015447	0.253574	-0.002846
	C492	C	0.000020	0.252930	-0.016336
	H493	H	0.006427	0.252412	-0.023306
	C494	C	-0.011288	0.252676	-0.018807
	H495	H	-0.013165	0.251940	-0.027560
	C496	C	-0.020222	0.252978	-0.010444
	C497	C	-0.032178	0.252690	-0.013086
	C498	C	0.023230	0.259065	-0.010313
	C499	C	-0.036357	0.258820	-0.022423
	C500	C	-0.039775	0.246287	-0.006310
	C501	C	0.019483	0.248508	0.007115
	C502	C	0.030689	0.248913	0.009515
	H503	H	0.013760	0.244186	0.013064
	C504	C	-0.051044	0.246163	-0.008611
	H505	H	-0.036736	0.241219	0.000772
	C506	C	0.038313	0.254430	0.002037
	H507	H	0.033653	0.245031	0.017276
	C508	C	0.034456	0.259479	-0.007950
	H509	H	0.020377	0.263329	-0.017917
	C510	C	-0.047590	0.258636	-0.024822
	H511	H	-0.030801	0.264040	-0.027695
	C512	C	-0.055049	0.252175	-0.018056
	H513	H	-0.056733	0.241449	-0.002985
	H514	H	-0.050741	0.263573	-0.031944
	H515	H	0.040168	0.264092	-0.013664
	C516	C	-0.015518	0.254128	0.019286
	H517	H	-0.031391	0.256778	0.012242
	C518	C	-0.018985	0.254114	0.031479
	C519	C	-0.011752	0.258016	0.039086
	C520	C	-0.014684	0.257808	0.050702
	H521	H	-0.003795	0.261150	0.035724
	C522	C	-0.029307	0.250106	0.035792
	C523	C	-0.024923	0.253654	0.054976
	H524	H	-0.009142	0.261040	0.056482
	C525	C	-0.032239	0.249928	0.047409
	H526	H	-0.034917	0.246880	0.030086
	H527	H	-0.040187	0.246833	0.050826
	C528	C	0.050375	0.254616	0.004848
	O529	O	0.052950	0.255719	0.014459
	N530	N	0.058325	0.253269	-0.004378
	H531	H	0.055771	0.250973	-0.011922
	C532	C	-0.067250	0.252669	-0.020627
	O533	O	-0.071677	0.260878	-0.025320
	N534	N	-0.072943	0.242971	-0.017467
	H535	H	-0.068508	0.235735	-0.015233
	C536	C	-0.028196	0.252997	0.067517
	O537	O	-0.037663	0.255592	0.071379
	N538	N	-0.019780	0.248105	0.074037
	H539	H	-0.012351	0.245240	0.070062
	N540	N	-0.020158	0.445603	0.242798
	C541	C	-0.008909	0.447993	0.241102
	C542	C	-0.008874	0.459861	0.242248
	N543	N	-0.019743	0.464291	0.244478
	C544	C	0.001292	0.465472	0.240847
	C545	C	0.001621	0.477996	0.241376
	C546	C	0.010988	0.458375	0.238736
	H547	H	0.019072	0.462080	0.237845
	C548	C	0.010802	0.446571	0.238165
	H549	H	0.018705	0.441614	0.236855
	C550	C	0.000870	0.440867	0.239543
	C551	C	0.000631	0.428397	0.238940
	C552	C	0.009716	0.484008	0.234810
	C553	C	0.006721	0.422450	0.230200
	C554	C	-0.005804	0.422123	0.247064
	C555	C	-0.006317	0.484344	0.248307
	C556	C	-0.006257	0.496068	0.248598
	H557	H	-0.012647	0.480047	0.253543
	C558	C	-0.006252	0.410455	0.246420
	H559	H	-0.010408	0.426493	0.254014
	C560	C	0.001780	0.501920	0.241963
	H561	H	-0.012512	0.500849	0.253903
	C562	C	0.009838	0.495742	0.235111
	H563	H	0.015803	0.479470	0.229156
	C564	C	0.006303	0.410781	0.229521
	H565	H	0.011581	0.427095	0.223696
	C566	C	-0.000041	0.404632	0.237722
	H567	H	-0.011487	0.405831	0.252605
	H568	H	0.010830	0.406289	0.222603
	H569	H	0.015935	0.500197	0.229702
	C570	C	-0.026241	0.455730	0.244863
	H571	H	-0.023480	0.438312	0.240996
	C572	C	-0.038547	0.456647	0.247009
	C573	C	-0.044443	0.467002	0.244722
	C574	C	-0.056071	0.468232	0.246797
	H575	H	-0.039740	0.474054	0.241330
	C576	C	-0.044618	0.447510	0.251371
	C577	C	-0.062083	0.459123	0.251244
	H578	H	-0.060551	0.476203	0.244792
	C579	C	-0.056262	0.448746	0.253414
	H580	H	-0.040209	0.439512	0.253383
	H581	H	-0.061024	0.441732	0.256770
	C582	C	0.001611	0.514572	0.242527
	O583	O	-0.007097	0.520457	0.242798
	N584	N	0.012160	0.518975	0.242909
	H585	H	0.019005	0.513585	0.243935
	C586	C	-0.000765	0.392120	0.236527
	O587	O	-0.001413	0.387993	0.227392
	N588	N	-0.000176	0.385713	0.246652
	H589	H	0.001792	0.389509	0.253746
	C590	C	-0.074660	0.460327	0.253670
	O591	O	-0.080649	0.452834	0.251811
	N592	N	-0.078431	0.470216	0.259193
	H593	H	-0.072704	0.474839	0.262620
	N594	N	0.237078	0.012151	0.484885
	C595	C	0.239828	0.022715	0.488108
	C596	C	0.239232	0.021980	0.500154
	N597	N	0.236223	0.011346	0.503847
	C598	C	0.241425	0.031359	0.506565
	C599	C	0.240382	0.031166	0.519232
	C600	C	0.244605	0.040896	0.500070
	H601	H	0.246728	0.048273	0.504383
	C602	C	0.245652	0.041251	0.488148
	H603	H	0.248518	0.048844	0.483772
	C604	C	0.243503	0.032115	0.481658
	C605	C	0.244593	0.032514	0.469048
	C606	C	0.237607	0.041061	0.525316
	C607	C	0.240610	0.042038	0.462781
	C608	C	0.249586	0.023340	0.462918
	C609	C	0.241987	0.021036	0.525640
	C610	C	0.240801	0.020762	0.537449
	H611	H	0.244207	0.013225	0.521349
	C612	C	0.250388	0.023572	0.451095
	H613	H	0.252996	0.015992	0.467529
	C614	C	0.238005	0.030655	0.543337
	H615	H	0.241947	0.012859	0.542258
	C616	C	0.236507	0.040848	0.537141
	H617	H	0.236001	0.049001	0.520748
	C618	C	0.241464	0.042342	0.450960
	H619	H	0.236511	0.049169	0.467237
	C620	C	0.246511	0.033187	0.444961
	H621	H	0.253948	0.016232	0.446630
	H622	H	0.238155	0.049664	0.446225
	H623	H	0.234096	0.048519	0.541638
	C624	C	0.235240	0.005638	0.494711
	H625	H	0.234846	0.010141	0.477170
	C626	C	0.232199	-0.006165	0.494635
	C627	C	0.224875	-0.010442	0.503344
	C628	C	0.222240	-0.021716	0.503610
	H629	H	0.221401	-0.004829	0.509927
	C630	C	0.236723	-0.013413	0.486121
	C631	C	0.226949	-0.028980	0.495247
	H632	H	0.216594	-0.025067	0.510331
	C633	C	0.234124	-0.024703	0.486431
	H634	H	0.242492	-0.010212	0.479442
	H635	H	0.237533	-0.030259	0.479794
	C636	C	0.236993	0.030123	0.556077
	O637	O	0.231516	0.023212	0.561453
	N638	N	0.243039	0.038023	0.561165
	H639	H	0.248220	0.042918	0.556176
	C640	C	0.246749	0.033610	0.432198
	O641	O	0.239481	0.038835	0.427166
	N642	N	0.256039	0.027839	0.426665
	H643	H	0.262673	0.025064	0.431142
	C644	C	0.224409	-0.041283	0.495998
	O645	O	0.214942	-0.044251	0.498085
	N646	N	0.233978	-0.048603	0.494273
	H647	H	0.241662	-0.045368	0.494508
	N648	N	0.273525	0.008454	-0.019631
	C649	C	0.275604	-0.002768	-0.016217
	C650	C	0.277938	-0.002367	-0.004642
	N651	N	0.277389	0.008741	-0.001427
	C652	C	0.280440	-0.012421	0.001791
	C653	C	0.283007	-0.012426	0.013945
	C654	C	0.279893	-0.022422	-0.004007
	H655	H	0.281895	-0.030414	0.000342
	C656	C	0.277203	-0.022622	-0.015361
	H657	H	0.276793	-0.030728	-0.019195
	C658	C	0.274718	-0.012814	-0.021872
	C659	C	0.271945	-0.013006	-0.033899
	C660	C	0.280087	-0.021278	0.021645
	C661	C	0.278375	-0.019846	-0.041718
	C662	C	0.262776	-0.006372	-0.037875
	C663	C	0.288541	-0.003548	0.018188
	C664	C	0.291039	-0.003498	0.029500
	H665	H	0.291106	0.003325	0.012500
	C666	C	0.260314	-0.006335	-0.049210
	H667	H	0.257390	-0.001414	-0.031896
	C668	C	0.288068	-0.012339	0.037042
	H669	H	0.295376	0.003380	0.032622
	C670	C	0.282508	-0.021228	0.032993
	H671	H	0.275614	-0.028157	0.018785
	C672	C	0.275932	-0.019866	-0.053054
	H673	H	0.285507	-0.025035	-0.038899
	C674	C	0.266899	-0.013086	-0.056920
	H675	H	0.253062	-0.001387	-0.052081
	H676	H	0.280983	-0.025104	-0.059058
	H677	H	0.280347	-0.028244	0.038695
	C678	C	0.274628	0.014937	-0.010348
	H679	H	0.272945	0.011537	-0.027659
	C680	C	0.273728	0.027344	-0.011113
	C681	C	0.281513	0.033525	-0.006043
	C682	C	0.280833	0.045283	-0.006823
	H683	H	0.288045	0.028968	-0.001498
	C684	C	0.265212	0.033200	-0.016939
	C685	C	0.272292	0.051105	-0.012568
	H686	H	0.286883	0.050109	-0.003010
	C687	C	0.264497	0.044969	-0.017647
	H688	H	0.259078	0.028452	-0.020707
	H689	H	0.258039	0.049488	-0.022299
	C690	C	0.290513	-0.011785	0.049291
	O691	O	0.299362	-0.008729	0.052122
	N692	N	0.281756	-0.014880	0.057075
	H693	H	0.274183	-0.016288	0.054173
	C694	C	0.264795	-0.012795	-0.069311
	O695	O	0.264523	-0.021329	-0.074577
	N696	N	0.263753	-0.001906	-0.074213
	H697	H	0.265044	0.004784	-0.069447
	C698	C	0.271749	0.063832	-0.013298
	O699	O	0.279898	0.068943	-0.016594
	N700	N	0.261208	0.068871	-0.009863
	H701	H	0.254853	0.063840	-0.007228
	N702	N	-0.010638	0.743092	0.498821
	C703	C	-0.017685	0.745355	0.508440
	C704	C	-0.028706	0.745881	0.504609
	N705	N	-0.028152	0.743250	0.493288
	C706	C	-0.038178	0.749123	0.511975
	C707	C	-0.049933	0.749825	0.508405
	C708	C	-0.035668	0.751862	0.522883
	H709	H	-0.042533	0.754132	0.529039
	C710	C	-0.024656	0.751569	0.526378
	H711	H	-0.023428	0.753680	0.535014
	C712	C	-0.015195	0.748345	0.519283
	C713	C	-0.003489	0.748005	0.522815
	C714	C	-0.058169	0.757720	0.513012
	C715	C	0.000366	0.756832	0.528789
	C716	C	0.004190	0.738824	0.520180
	C717	C	-0.053254	0.742676	0.500218
	C718	C	-0.064218	0.743320	0.496853
	H719	H	-0.047170	0.736497	0.496453
	C720	C	0.015310	0.738635	0.523031
	H721	H	0.001290	0.731668	0.516037
	C722	C	-0.072305	0.751170	0.501550
	H723	H	-0.066637	0.737779	0.490493
	C724	C	-0.069157	0.758367	0.509701
	H725	H	-0.055882	0.763616	0.519075
	C726	C	0.011478	0.756671	0.531692
	H727	H	-0.005360	0.764020	0.530939
	C728	C	0.019071	0.747601	0.528785
	H729	H	0.021062	0.731400	0.521140
	H730	H	0.014437	0.763565	0.536196
	H731	H	-0.075251	0.764725	0.513153
	C732	C	-0.017426	0.741432	0.490131
	H733	H	-0.002256	0.743946	0.497830
	C734	C	-0.012657	0.738932	0.478624
	C735	C	-0.017927	0.743512	0.469135
	C736	C	-0.013271	0.741437	0.458205
	H737	H	-0.025671	0.748736	0.470511
	C738	C	-0.002669	0.732118	0.476924
	C739	C	-0.003265	0.734680	0.456546
	H740	H	-0.017226	0.745282	0.450943
	C741	C	0.001973	0.730062	0.466004
	H742	H	0.001324	0.728297	0.484176
	H743	H	0.009723	0.724862	0.464614
	C744	C	-0.084161	0.751460	0.498014
	O745	O	-0.086249	0.750726	0.488199
	N746	N	-0.092489	0.752444	0.506946
	H747	H	-0.090162	0.751758	0.515051
	C748	C	0.031225	0.747903	0.531246
	O749	O	0.034085	0.749994	0.540512
	N750	N	0.038721	0.746124	0.521748
	H751	H	0.035542	0.745444	0.514080
	C752	C	0.002218	0.732445	0.444903
	O753	O	0.012361	0.732157	0.443001
	N754	N	-0.005091	0.729738	0.436879
	H755	H	-0.013362	0.728953	0.439296
	C756	C	0.146709	0.260789	-0.005828
	C757	C	0.138981	0.262047	0.003655
	C758	C	0.127485	0.260760	0.002921
	C759	C	0.123510	0.258103	-0.007698
	C760	C	0.131335	0.256795	-0.017361
	C761	C	0.142751	0.258160	-0.016240
	H762	H	0.141988	0.264070	0.011711
	H763	H	0.148722	0.257183	-0.023565
	C764	C	0.111855	0.256789	-0.008651
	C765	C	0.104030	0.258120	0.001008
	C766	C	0.092603	0.256838	-0.000131
	C767	C	0.088633	0.254272	-0.010555
	C768	C	0.096366	0.252942	-0.020024
	C769	C	0.107876	0.254151	-0.019273
	H770	H	0.086631	0.257861	0.007187
	H771	H	0.093351	0.250958	-0.028087
	C772	C	0.127101	0.254110	-0.027962
	C773	C	0.115961	0.252853	-0.028872
	H774	H	0.133073	0.253111	-0.035274
	H775	H	0.112953	0.250838	-0.036932
	C776	C	0.119406	0.262027	0.012529
	C777	C	0.108266	0.260773	0.011618
	H778	H	0.122416	0.264030	0.020591
	H779	H	0.102295	0.261763	0.018932
	N780	N	0.165938	0.261188	-0.013384
	C781	C	0.158761	0.262231	-0.004832
	H782	H	0.161287	0.264283	0.003547
	N783	N	0.069378	0.254334	-0.003045
	C784	C	0.076542	0.253065	-0.011578
	H785	H	0.073973	0.251088	-0.019960
	C786	C	0.838887	0.234160	-0.015792
	C787	C	0.844977	0.241896	-0.022664
	C788	C	0.856691	0.242042	-0.022608
	C789	C	0.862610	0.234046	-0.015539
	C790	C	0.856474	0.226056	-0.008661
	C791	C	0.844755	0.226309	-0.008873
	H792	H	0.840493	0.247994	-0.027997
	H793	H	0.840053	0.220332	-0.003564
	C794	C	0.874503	0.234111	-0.015263
	C795	C	0.880608	0.242262	-0.021953
	C796	C	0.892266	0.242335	-0.021358
	C797	C	0.898135	0.234493	-0.014431
	C798	C	0.892115	0.226391	-0.007989
	C799	C	0.880426	0.226103	-0.008209
	H800	H	0.896914	0.248594	-0.026337
	H801	H	0.896593	0.220339	-0.002604
	C802	C	0.862662	0.218033	-0.001677
	C803	C	0.874042	0.218030	-0.001490
	H804	H	0.857980	0.211938	0.003483
	H805	H	0.878532	0.211926	0.003837
	C806	C	0.863084	0.250057	-0.029397
	C807	C	0.874440	0.250185	-0.029056
	H808	H	0.858605	0.256104	-0.034791
	H809	H	0.879115	0.256317	-0.034171
	N810	N	0.820689	0.228412	-0.008602
	C811	C	0.826524	0.234460	-0.015724
	H812	H	0.822521	0.240371	-0.021791
	N813	N	0.915823	0.242920	-0.018518
	C814	C	0.910381	0.234853	-0.013748
	H815	H	0.914564	0.228083	-0.008718
	C816	C	0.834331	0.495860	0.265258
	C817	C	0.842089	0.497799	0.273219
	C818	C	0.853369	0.493776	0.271716
	C819	C	0.857070	0.487515	0.261903
	C820	C	0.849196	0.485449	0.253825
	C821	C	0.838012	0.489667	0.255646
	H822	H	0.839296	0.502575	0.280649
	H823	H	0.832025	0.488162	0.249493
	C824	C	0.868519	0.483430	0.260152
	C825	C	0.876416	0.485586	0.268177
	C826	C	0.887661	0.481609	0.266218
	C827	C	0.891369	0.475510	0.256550
	C828	C	0.883546	0.473335	0.248733
	C829	C	0.872226	0.477190	0.250328
	H830	H	0.893678	0.483250	0.272283
	H831	H	0.886373	0.468591	0.241287
	C832	C	0.853145	0.479081	0.244025
	C833	C	0.864081	0.475146	0.242370
	H834	H	0.847134	0.477483	0.237935
	H835	H	0.866889	0.470370	0.234940
	C836	C	0.861494	0.495745	0.279719
	C837	C	0.872443	0.491862	0.278032
	H838	H	0.858677	0.500457	0.287186
	H839	H	0.878447	0.493437	0.284135
	N840	N	0.815454	0.499090	0.259570
	C841	C	0.822559	0.500383	0.266936
	H842	H	0.820219	0.505055	0.274683
	N843	N	0.910663	0.473905	0.261206
	C844	C	0.903279	0.471528	0.254505
	H845	H	0.905448	0.466831	0.246751
	C846	C	0.227246	0.862511	0.492549
	C847	C	0.236500	0.868074	0.495723
	C848	C	0.236444	0.879889	0.495563
	C849	C	0.226772	0.886451	0.492088
	C850	C	0.217342	0.880840	0.488839
	C851	C	0.217760	0.869005	0.489133
	H852	H	0.243839	0.863106	0.498372
	H853	H	0.210607	0.864709	0.486691
	C854	C	0.226527	0.898475	0.491883
	C855	C	0.235950	0.904074	0.495161
	C856	C	0.235527	0.915901	0.494918
	C857	C	0.226049	0.922420	0.491516
	C858	C	0.216802	0.916871	0.488303
	C859	C	0.216855	0.905051	0.488426
	H860	H	0.242660	0.920161	0.497437
	H861	H	0.209454	0.921879	0.485726
	C862	C	0.207701	0.887674	0.485381
	C863	C	0.207468	0.899169	0.485185
	H864	H	0.200552	0.883393	0.482922
	H865	H	0.200124	0.904157	0.482569
	C866	C	0.245836	0.885759	0.498810
	C867	C	0.245598	0.897251	0.498622
	H868	H	0.253170	0.880773	0.501447
	H869	H	0.252733	0.901531	0.501109
	N870	N	0.219259	0.844701	0.490112
	C871	C	0.227566	0.850061	0.492880
	H872	H	0.235257	0.845576	0.495683
	N873	N	0.234178	0.939993	0.494231
	C874	C	0.225784	0.934884	0.491322
	H875	H	0.218180	0.939344	0.488337
	C876	C	0.248136	0.048279	0.649516
	C877	C	0.240502	0.041813	0.644526
	C878	C	0.240408	0.041256	0.632726
	C879	C	0.248189	0.047455	0.625590
	C880	C	0.255915	0.054105	0.630620
	C881	C	0.255757	0.054364	0.642454
	H882	H	0.234617	0.037086	0.649933
	H883	H	0.261660	0.059354	0.646309
	C884	C	0.248289	0.046960	0.613574
	C885	C	0.240646	0.040209	0.608551
	C886	C	0.240975	0.039742	0.596724
	C887	C	0.248611	0.045802	0.589655
	C888	C	0.256062	0.052491	0.594633
	C889	C	0.256071	0.053155	0.606433
	H890	H	0.235222	0.034567	0.592882
	H891	H	0.261983	0.057170	0.589221
	C892	C	0.263645	0.060299	0.623225
	C893	C	0.263710	0.059863	0.611738
	H894	H	0.269474	0.065365	0.627080
	H895	H	0.269604	0.064583	0.606332
	C896	C	0.232735	0.034585	0.627425
	C897	C	0.232862	0.034075	0.615941
	H898	H	0.226815	0.029896	0.632831
	H899	H	0.227052	0.028988	0.612085
	N900	N	0.255477	0.053906	0.666673
	C901	C	0.248197	0.048554	0.661963
	H902	H	0.241859	0.043815	0.666989
	N903	N	0.242507	0.038565	0.572615
	C904	C	0.248872	0.045070	0.577219
	H905	H	0.254819	0.050223	0.572133
	C906	C	0.253671	0.023145	0.839553
	C907	C	0.254006	0.011993	0.844016
	C908	C	0.255091	0.009596	0.855586
	C909	C	0.255862	0.018679	0.863027
	C910	C	0.255453	0.030035	0.858543
	C911	C	0.254364	0.032040	0.846927
	H912	H	0.253456	0.005096	0.838372
	H913	H	0.254085	0.040660	0.843495
	C914	C	0.257094	0.016437	0.874794
	C915	C	0.257575	0.005079	0.879275
	C916	C	0.258910	0.003065	0.890852
	C917	C	0.259795	0.011959	0.898179
	C918	C	0.259256	0.023118	0.893739
	C919	C	0.257931	0.025522	0.882216
	H920	H	0.259322	-0.005556	0.894279
	H921	H	0.259930	0.030019	0.899348
	C922	C	0.256233	0.039040	0.866230
	C923	C	0.257411	0.036898	0.877477
	H924	H	0.255873	0.047652	0.862797
	H925	H	0.258002	0.043798	0.883111
	C926	C	0.255515	-0.001773	0.860350
	C927	C	0.256696	-0.003915	0.871598
	H928	H	0.254882	-0.008670	0.854722
	H929	H	0.257018	-0.012526	0.875036
	N930	N	0.252622	0.035564	0.823095
	C931	C	0.252761	0.025454	0.827308
	H932	H	0.252312	0.018138	0.821985
	N933	N	0.262056	-0.000376	0.914601
	C934	C	0.261390	0.009705	0.910311
	H935	H	0.262109	0.017079	0.915491
	C936	C	0.250628	0.158747	-0.008668
	C937	C	0.242209	0.151360	-0.010321
	C938	C	0.244490	0.139621	-0.010304
	C939	C	0.255608	0.135047	-0.008550
	C940	C	0.264194	0.142524	-0.006862
	C941	C	0.261544	0.154193	-0.006962
	H942	H	0.233775	0.154828	-0.011646
	H943	H	0.268059	0.159886	-0.005682
	C944	C	0.258117	0.123145	-0.008478
	C945	C	0.249545	0.115655	-0.010183
	C946	C	0.252205	0.103978	-0.010086
	C947	C	0.263117	0.099445	-0.008324
	C948	C	0.271509	0.106855	-0.006653
	C949	C	0.269234	0.118585	-0.006706
	H950	H	0.245727	0.098270	-0.011398
	H951	H	0.279954	0.103387	-0.005345
	C952	C	0.275334	0.137700	-0.005108
	C953	C	0.277730	0.126325	-0.005031
	H954	H	0.281831	0.143407	-0.003839
	H955	H	0.286167	0.122854	-0.003704
	C956	C	0.236006	0.131871	-0.011999
	C957	C	0.238409	0.120494	-0.011947
	H958	H	0.227571	0.135336	-0.013340
	H959	H	0.231917	0.114795	-0.013245
	N960	N	0.255739	0.177860	-0.007333
	C961	C	0.248069	0.171080	-0.008705
	H962	H	0.239364	0.174144	-0.009932
	N963	N	0.258470	0.080132	-0.009797
	C964	C	0.265872	0.087139	-0.008215
	H965	H	0.274515	0.084434	-0.006364
	C966	C	0.818489	0.760668	0.503585
	C967	C	0.826420	0.760068	0.494209
	C968	C	0.837997	0.759021	0.495574
	C969	C	0.841844	0.758562	0.506739
	C970	C	0.833815	0.759186	0.516299
	C971	C	0.822328	0.760221	0.514539
	H972	H	0.823506	0.760403	0.485738
	H973	H	0.816207	0.760677	0.521788
	C974	C	0.853569	0.757477	0.508334
	C975	C	0.861604	0.756830	0.498779
	C976	C	0.873092	0.755745	0.500547
	C977	C	0.876918	0.755282	0.511507
	C978	C	0.868979	0.755929	0.520875
	C979	C	0.857408	0.757009	0.519503
	H980	H	0.879225	0.755241	0.493312
	H981	H	0.871878	0.755570	0.529352
	C982	C	0.837915	0.758705	0.527466
	C983	C	0.849122	0.757673	0.528990
	H984	H	0.831787	0.759186	0.534698
	H985	H	0.852027	0.757321	0.537466
	C986	C	0.846289	0.758366	0.486090
	C987	C	0.857497	0.757323	0.487614
	H988	H	0.843383	0.758718	0.477614
	H989	H	0.863623	0.756835	0.480381
	N990	N	0.799024	0.762165	0.510436
	C991	C	0.806337	0.761700	0.501956
	H992	H	0.803865	0.761978	0.493194
	N993	N	0.896472	0.753473	0.504850
	C994	C	0.889044	0.754144	0.513226
	H995	H	0.891417	0.753875	0.522026
	C996	C	0.128315	0.744045	0.513152
	C997	C	0.121619	0.745160	0.523373
	C998	C	0.109862	0.745217	0.523678
	C999	C	0.104557	0.744090	0.513385
	C1000	C	0.111334	0.742906	0.502982
	C1001	C	0.123043	0.742914	0.503069
	H1002	H	0.125639	0.746034	0.531180
	H1003	H	0.128202	0.742042	0.495166
	C1004	C	0.092623	0.744180	0.513476
	C1005	C	0.085824	0.745417	0.523863
	C1006	C	0.074097	0.745547	0.523739
	C1007	C	0.068858	0.744473	0.513627
	C1008	C	0.075590	0.743225	0.503443
	C1009	C	0.087338	0.743068	0.503170
	H1010	H	0.068894	0.746514	0.531602
	H1011	H	0.071602	0.742398	0.495608
	C1012	C	0.105787	0.741765	0.492719
	C1013	C	0.094384	0.741838	0.492808
	H1014	H	0.110971	0.740845	0.484846
	H1015	H	0.090373	0.740976	0.484990
	C1016	C	0.102802	0.746406	0.534038
	C1017	C	0.091392	0.746505	0.534124
	H1018	H	0.106812	0.747245	0.541860
	H1019	H	0.086212	0.747423	0.542000
	N1020	N	0.146775	0.743416	0.503611
	C1021	C	0.140672	0.744144	0.512954
	H1022	H	0.144345	0.744993	0.521086
	N1023	N	0.050012	0.745960	0.522575
	C1024	C	0.056515	0.744687	0.513535
	H1025	H	0.053112	0.743728	0.505274
	N1026	N	0.255642	0.252336	-0.005629
	C1027	C	0.250078	0.262894	-0.006892
	C1028	C	0.238989	0.260585	-0.009276
	N1029	N	0.238118	0.249032	-0.009520
	C1030	C	0.230767	0.269517	-0.011028
	C1031	C	0.219018	0.267561	-0.013587
	C1032	C	0.234373	0.280370	-0.009741
	H1033	H	0.228566	0.287591	-0.011165
	C1034	C	0.245301	0.282418	-0.007018
	H1035	H	0.247397	0.291061	-0.006008
	C1036	C	0.253537	0.273745	-0.005231
	C1037	C	0.265136	0.275772	-0.002400
	C1038	C	0.209845	0.274871	-0.009859
	C1039	C	0.271474	0.283892	-0.008449
	C1040	C	0.270207	0.269531	0.006404
	C1041	C	0.216652	0.258318	-0.019921
	C1042	C	0.205723	0.256480	-0.022444
	H1043	H	0.223502	0.252609	-0.023094
	C1044	C	0.281249	0.271032	0.008796
	H1045	H	0.265302	0.263599	0.011542
	C1046	C	0.196707	0.263815	-0.018680
	H1047	H	0.204039	0.249365	-0.027417
	C1048	C	0.198884	0.273019	-0.012295
	H1049	H	0.211275	0.281943	-0.004752
	C1050	C	0.282517	0.285450	-0.006072
	H1051	H	0.267767	0.288842	-0.015266
	C1052	C	0.287531	0.278986	0.002526
	H1053	H	0.284967	0.266317	0.015747
	H1054	H	0.287414	0.291637	-0.010858
	H1055	H	0.191994	0.278883	-0.009500
	C1056	C	0.248003	0.244367	-0.007231
	H1057	H	0.264013	0.250667	-0.005270
	C1058	C	0.251202	0.232200	-0.006802
	C1059	C	0.247126	0.225031	-0.014495
	C1060	C	0.250330	0.213527	-0.014307
	H1061	H	0.241461	0.228658	-0.020601
	C1062	C	0.258502	0.227580	0.001154
	C1063	C	0.257620	0.208938	-0.006349
	H1064	H	0.247403	0.208136	-0.020509
	C1065	C	0.261677	0.216085	0.001342
	H1066	H	0.261490	0.232994	0.007306
	H1067	H	0.267342	0.212451	0.007440
	C1068	C	0.184964	0.261388	-0.021209
	O1069	O	0.182749	0.258420	-0.030445
	N1070	N	0.176927	0.262626	-0.012045
	H1071	H	0.179542	0.263951	-0.004244
	C1072	C	0.299716	0.280156	0.004410
	O1073	O	0.303551	0.289241	0.005434
	N1074	N	0.306156	0.269897	0.004279
	H1075	H	0.302427	0.262789	0.002421
	C1076	C	0.261459	0.196589	-0.005957
	O1077	O	0.270936	0.193433	-0.003724
	N1078	N	0.253103	0.189154	-0.007343
	H1079	H	0.245021	0.192254	-0.007915
	N1080	N	0.753541	0.255017	0.005981
	C1081	C	0.748991	0.244960	0.003598
	C1082	C	0.737266	0.247749	0.003343
	N1083	N	0.735040	0.259078	0.005393
	C1084	C	0.729732	0.239393	0.001386
	C1085	C	0.717298	0.241765	0.001653
	C1086	C	0.734838	0.228648	-0.000713
	H1087	H	0.729591	0.221938	-0.002573
	C1088	C	0.746532	0.226235	-0.001033
	H1089	H	0.749846	0.217797	-0.003148
	C1090	C	0.754129	0.234333	0.000903
	C1091	C	0.766506	0.231791	0.000512
	C1092	C	0.709811	0.233518	0.005488
	C1093	C	0.771182	0.221652	0.005182
	C1094	C	0.774014	0.239484	-0.004528
	C1095	C	0.712543	0.252388	-0.001759
	C1096	C	0.700934	0.254667	-0.001370
	H1097	H	0.718014	0.258956	-0.004777
	C1098	C	0.785628	0.237274	-0.004712
	H1099	H	0.770659	0.247241	-0.008488
	C1100	C	0.693611	0.246391	0.002467
	H1101	H	0.697395	0.262927	-0.003962
	C1102	C	0.698190	0.235753	0.005865
	H1103	H	0.713139	0.225341	0.008492
	C1104	C	0.782790	0.219356	0.004921
	H1105	H	0.765655	0.215625	0.009342
	C1106	C	0.790169	0.227053	-0.000176
	H1107	H	0.791153	0.243563	-0.008315
	H1108	H	0.786284	0.211580	0.008743
	H1109	H	0.692627	0.229366	0.009187
	C1110	C	0.744775	0.263224	0.006755
	H1111	H	0.761242	0.255811	0.008761
	C1112	C	0.746431	0.275148	0.008751
	C1113	C	0.737436	0.282083	0.013432
	C1114	C	0.738693	0.293474	0.015118
	H1115	H	0.729452	0.278393	0.015652
	C1116	C	0.756775	0.279890	0.005900
	C1117	C	0.748992	0.298195	0.012128
	H1118	H	0.731752	0.298705	0.018913
	C1119	C	0.758028	0.291273	0.007620
	H1120	H	0.763759	0.274743	0.002086
	H1121	H	0.765985	0.295008	0.005420
	C1122	C	0.681118	0.249046	0.002600
	O1123	O	0.676760	0.258093	0.005533
	N1124	N	0.675013	0.240371	-0.001074
	H1125	H	0.679254	0.233556	-0.004688
	C1126	C	0.802667	0.224509	0.000236
	O1127	O	0.806575	0.218608	0.007756
	N1128	N	0.809312	0.229211	-0.008742
	H1129	H	0.805630	0.232486	-0.015714
	C1130	C	0.750563	0.310555	0.013540
	O1131	O	0.759176	0.313751	0.016790
	N1132	N	0.741810	0.317751	0.009714
	H1133	H	0.735856	0.314430	0.005307
	N1134	N	0.745476	0.527641	0.256669
	C1135	C	0.735763	0.532143	0.262439
	C1136	C	0.738164	0.531601	0.274029
	N1137	N	0.748890	0.526764	0.275030
	C1138	C	0.730008	0.535487	0.282567
	C1139	C	0.731996	0.534792	0.294893
	C1140	C	0.719883	0.540034	0.278545
	H1141	H	0.713382	0.543449	0.284560
	C1142	C	0.717874	0.540888	0.266972
	H1143	H	0.709955	0.544852	0.264505
	C1144	C	0.725835	0.537204	0.258422
	C1145	C	0.723907	0.538196	0.246155
	C1146	C	0.723131	0.533749	0.303326
	C1147	C	0.714070	0.534648	0.241949
	C1148	C	0.731949	0.542796	0.238313
	C1149	C	0.742865	0.535221	0.298613
	C1150	C	0.744812	0.534462	0.310089
	H1151	H	0.749907	0.536286	0.292447
	C1152	C	0.730381	0.543556	0.226752
	H1153	H	0.739384	0.546037	0.241428
	C1154	C	0.735961	0.533121	0.318341
	H1155	H	0.753250	0.534866	0.312793
	C1156	C	0.725036	0.533039	0.314827
	H1157	H	0.714626	0.533380	0.300867
	C1158	C	0.712467	0.535373	0.230382
	H1159	H	0.707724	0.531086	0.247814
	C1160	C	0.720624	0.539793	0.222659
	H1161	H	0.736523	0.547431	0.220892
	H1162	H	0.704897	0.532526	0.227176
	H1163	H	0.718002	0.532564	0.321118
	C1164	C	0.753098	0.524677	0.264681
	H1165	H	0.746303	0.525415	0.248476
	C1166	C	0.764243	0.519161	0.261687
	C1167	C	0.769301	0.511607	0.269479
	C1168	C	0.779868	0.506324	0.266812
	H1169	H	0.764805	0.509990	0.277632
	C1170	C	0.770024	0.521295	0.251132
	C1171	C	0.785619	0.508513	0.256284
	H1172	H	0.783605	0.500317	0.272776
	C1173	C	0.780571	0.515983	0.248465
	H1174	H	0.766358	0.527299	0.245126
	H1175	H	0.785100	0.517559	0.240328
	C1176	C	0.738364	0.532512	0.330665
	O1177	O	0.745733	0.537659	0.334258
	N1178	N	0.732083	0.524907	0.337424
	H1179	H	0.726938	0.519894	0.333693
	C1180	C	0.719014	0.539991	0.210148
	O1181	O	0.710074	0.542840	0.206364
	N1182	N	0.728539	0.536131	0.203476
	H1183	H	0.735302	0.532672	0.207387
	C1184	C	0.797088	0.503017	0.253153
	O1185	O	0.799595	0.499309	0.243822
	N1186	N	0.804768	0.503598	0.261412
	H1187	H	0.802352	0.507769	0.268635
	N1188	N	0.211627	0.770894	0.492581
	C1189	C	0.216933	0.760164	0.493519
	C1190	C	0.228503	0.762072	0.493997
	N1191	N	0.229943	0.773533	0.493255
	C1192	C	0.236659	0.752903	0.494792
	C1193	C	0.248962	0.754468	0.494708
	C1194	C	0.232306	0.742199	0.495511
	H1195	H	0.238048	0.734832	0.496431
	C1196	C	0.220757	0.740539	0.495550
	H1197	H	0.218019	0.731998	0.496482
	C1198	C	0.212567	0.749458	0.494763
	C1199	C	0.200364	0.747711	0.494703
	C1200	C	0.257007	0.746529	0.489859
	C1201	C	0.196443	0.739521	0.487959
	C1202	C	0.192299	0.754268	0.501291
	C1203	C	0.253028	0.764035	0.499307
	C1204	C	0.264503	0.765614	0.499066
	H1205	H	0.247119	0.770334	0.503135
	C1206	C	0.180829	0.752833	0.501037
	H1207	H	0.195122	0.760488	0.506746
	C1208	C	0.272383	0.757665	0.494199
	H1209	H	0.267497	0.773082	0.502577
	C1210	C	0.268499	0.748058	0.489628
	H1211	H	0.254215	0.739209	0.485945
	C1212	C	0.184989	0.738042	0.487689
	H1213	H	0.202445	0.734487	0.482620
	C1214	C	0.177060	0.744559	0.494350
	H1215	H	0.174761	0.758192	0.505946
	H1216	H	0.182031	0.731872	0.482257
	H1217	H	0.274487	0.741991	0.485524
	C1218	C	0.219869	0.778564	0.492608
	H1219	H	0.203671	0.772786	0.490437
	C1220	C	0.217460	0.790830	0.491282
	C1221	C	0.225575	0.797521	0.485708
	C1222	C	0.223576	0.809180	0.484504
	H1223	H	0.233454	0.793412	0.482389
	C1224	C	0.207236	0.796089	0.495548
	C1225	C	0.213424	0.814420	0.488912
	H1226	H	0.229794	0.814229	0.479960
	C1227	C	0.205250	0.807755	0.494336
	H1228	H	0.200966	0.791060	0.500030
	H1229	H	0.197385	0.811904	0.497615
	C1230	C	0.284719	0.759541	0.494205
	O1231	O	0.288374	0.768787	0.492299
	N1232	N	0.291550	0.749886	0.496738
	H1233	H	0.287869	0.742717	0.499576
	C1234	C	0.164734	0.743157	0.493414
	O1235	O	0.161001	0.741341	0.484443
	N1236	N	0.158098	0.743672	0.503655
	H1237	H	0.161884	0.743805	0.511060
	C1238	C	0.211147	0.827051	0.487973
	O1239	O	0.201995	0.831353	0.485947
	N1240	N	0.220077	0.833223	0.490704
	H1241	H	0.227077	0.829000	0.493508
	N1242	N	0.277544	0.053972	0.755463
	C1243	C	0.266782	0.053938	0.751756
	C1244	C	0.268346	0.054575	0.739732
	N1245	N	0.279653	0.055081	0.736513
	C1246	C	0.259040	0.054765	0.732925
	C1247	C	0.260199	0.055800	0.720271
	C1248	C	0.248595	0.053919	0.739013
	H1249	H	0.241134	0.053712	0.734381
	C1250	C	0.247301	0.052838	0.750907
	H1251	H	0.238962	0.051890	0.754966
	C1252	C	0.256368	0.052558	0.757758
	C1253	C	0.255065	0.051314	0.770320
	C1254	C	0.251445	0.060670	0.713995
	C1255	C	0.246943	0.057942	0.776739
	C1256	C	0.262006	0.043478	0.776225
	C1257	C	0.270143	0.052001	0.714065
	C1258	C	0.271318	0.053025	0.702273
	H1259	H	0.277086	0.048143	0.718498
	C1260	C	0.260969	0.042383	0.788020
	H1261	H	0.268201	0.038129	0.771437
	C1262	C	0.262538	0.057865	0.696199
	H1263	H	0.279078	0.050143	0.697624
	C1264	C	0.252536	0.061614	0.702184
	H1265	H	0.243757	0.064010	0.718401
	C1266	C	0.245882	0.056890	0.788539
	H1267	H	0.241623	0.064199	0.772416
	C1268	C	0.252756	0.048971	0.794291
	H1269	H	0.266568	0.036482	0.792424
	H1270	H	0.239767	0.062217	0.793454
	H1271	H	0.245783	0.065595	0.697532
	C1272	C	0.284912	0.054583	0.745902
	H1273	H	0.279531	0.055230	0.763458
	C1274	C	0.297149	0.054741	0.746478
	C1275	C	0.303500	0.060749	0.738110
	C1276	C	0.315127	0.060806	0.738352
	H1277	H	0.299188	0.065277	0.731399
	C1278	C	0.302721	0.048861	0.755150
	C1279	C	0.320684	0.054786	0.746895
	H1280	H	0.320060	0.065449	0.731902
	C1281	C	0.314365	0.048891	0.755354
	H1282	H	0.297914	0.044076	0.761568
	H1283	H	0.318617	0.044478	0.762150
	C1284	C	0.263882	0.058515	0.683469
	O1285	O	0.271878	0.062616	0.678317
	N1286	N	0.255312	0.053785	0.678149
	H1287	H	0.249324	0.049749	0.683021
	C1288	C	0.251824	0.048298	0.807048
	O1289	O	0.250603	0.056681	0.812677
	N1290	N	0.252025	0.037306	0.811757
	H1291	H	0.251616	0.030716	0.806580
	C1292	C	0.333324	0.054701	0.746722
	O1293	O	0.338294	0.063205	0.744617
	N1294	N	0.338492	0.044032	0.748990
	H1295	H	0.333838	0.037150	0.748703
	N1296	N	0.711486	0.747540	0.504166
	C1297	C	0.715162	0.758433	0.503209
	C1298	C	0.726586	0.757218	0.505878
	N1299	N	0.729493	0.745997	0.508363
	C1300	C	0.733216	0.766721	0.505753
	C1301	C	0.745186	0.765881	0.508664
	C1302	C	0.727792	0.776950	0.502307
	H1303	H	0.732329	0.784577	0.502177
	C1304	C	0.716592	0.777888	0.499323
	H1305	H	0.713047	0.786089	0.496577
	C1306	C	0.709874	0.768640	0.499438
	C1307	C	0.698021	0.769691	0.496317
	C1308	C	0.753181	0.772969	0.503403
	C1309	C	0.690454	0.778326	0.500596
	C1310	C	0.693986	0.762174	0.488888
	C1311	C	0.748923	0.757988	0.516942
	C1312	C	0.760027	0.757259	0.519889
	H1313	H	0.742987	0.752499	0.521294
	C1314	C	0.682841	0.763099	0.486030
	H1315	H	0.699787	0.755738	0.485103
	C1316	C	0.767855	0.764379	0.514612
	H1317	H	0.762759	0.751205	0.526372
	C1318	C	0.764331	0.772201	0.506255
	H1319	H	0.750693	0.778981	0.496812
	C1320	C	0.679312	0.779301	0.497752
	H1321	H	0.693318	0.784222	0.506375
	C1322	C	0.675386	0.771695	0.490448
	H1323	H	0.679962	0.757439	0.480040
	H1324	H	0.673513	0.785958	0.501137
	H1325	H	0.770290	0.777874	0.502228
	C1326	C	0.720501	0.740444	0.507197
	H1327	H	0.703430	0.745375	0.504387
	C1328	C	0.719719	0.728194	0.509132
	C1329	C	0.726199	0.722448	0.517196
	C1330	C	0.725686	0.710838	0.519107
	H1331	H	0.731677	0.727206	0.521864
	C1332	C	0.712679	0.722021	0.503053
	C1333	C	0.718762	0.704676	0.512951
	H1334	H	0.730672	0.706386	0.525355
	C1335	C	0.712197	0.710392	0.504956
	H1336	H	0.707785	0.726341	0.496670
	H1337	H	0.706603	0.705707	0.500381
	C1338	C	0.779838	0.763158	0.517784
	O1339	O	0.782221	0.762208	0.527581
	N1340	N	0.787930	0.763009	0.508599
	H1341	H	0.785368	0.762760	0.500610
	C1342	C	0.663204	0.772688	0.487879
	O1343	O	0.658417	0.781684	0.485473
	N1344	N	0.657863	0.762522	0.489040
	H1345	H	0.662158	0.755516	0.492084
	C1346	C	0.718584	0.692070	0.515113
	O1347	O	0.718819	0.687910	0.524616
	N1348	N	0.718300	0.685919	0.505305
	H1349	H	0.720176	0.689874	0.497658
	C1350	C	0.394185	0.252435	0.010530
	C1351	C	0.388446	0.263098	0.011619
	C1352	C	0.376775	0.264529	0.010922
	C1353	C	0.370561	0.254945	0.009097
	C1354	C	0.376351	0.244079	0.008060
	C1355	C	0.388013	0.243043	0.008790
	H1356	H	0.393163	0.270372	0.012970
	H1357	H	0.392428	0.234796	0.007962
	C1358	C	0.358713	0.256208	0.008252
	C1359	C	0.352912	0.267081	0.009203
	C1360	C	0.341272	0.268140	0.008224
	C1361	C	0.335161	0.258745	0.006334
	C1362	C	0.340903	0.248063	0.005470
	C1363	C	0.352530	0.246618	0.006378
	H1364	H	0.336833	0.276387	0.008893
	H1365	H	0.336238	0.240778	0.004013
	C1366	C	0.369899	0.234541	0.006245
	C1367	C	0.358577	0.235745	0.005449
	H1368	H	0.374332	0.226302	0.005507
	H1369	H	0.353876	0.228463	0.004065
	C1370	C	0.370696	0.275381	0.011933
	C1371	C	0.359370	0.276591	0.011111
	H1372	H	0.375388	0.282658	0.013356
	H1373	H	0.354939	0.284829	0.011871
	N1374	N	0.411746	0.241412	0.009741
	C1375	C	0.406501	0.251084	0.011052
	H1376	H	0.410916	0.258677	0.012480
	N1377	N	0.317364	0.269515	0.005662
	C1378	C	0.322948	0.259930	0.005131
	H1379	H	0.318824	0.252153	0.003664
	C1380	C	0.586171	0.236467	-0.000294
	C1381	C	0.591879	0.245431	0.003509
	C1382	C	0.603654	0.245134	0.002941
	C1383	C	0.610011	0.235514	-0.001602
	C1384	C	0.604246	0.226387	-0.005492
	C1385	C	0.592473	0.227042	-0.004765
	H1386	H	0.587059	0.252726	0.006959
	H1387	H	0.588069	0.220117	-0.007713
	C1388	C	0.621984	0.235010	-0.002235
	C1389	C	0.627756	0.244128	0.001669
	C1390	C	0.639532	0.243437	0.001002
	C1391	C	0.645822	0.233980	-0.003416
	C1392	C	0.640104	0.225046	-0.007266
	C1393	C	0.628334	0.225379	-0.006761
	H1394	H	0.643951	0.250342	0.003967
	H1395	H	0.644912	0.217731	-0.010689
	C1396	C	0.610852	0.216788	-0.010042
	C1397	C	0.622295	0.216307	-0.010645
	H1398	H	0.606434	0.209887	-0.012998
	H1399	H	0.627107	0.209004	-0.014094
	C1400	C	0.609698	0.254217	0.006793
	C1401	C	0.621144	0.253737	0.006188
	H1402	H	0.604887	0.261527	0.010228
	H1403	H	0.625560	0.260648	0.009130
	N1404	N	0.568510	0.228778	-0.003030
	C1405	C	0.573770	0.236922	0.000406
	H1406	H	0.569298	0.244502	0.003966
	N1407	N	0.663612	0.241385	-0.000469
	C1408	C	0.658218	0.233364	-0.003969
	H1409	H	0.662603	0.225715	-0.007483
	C1410	C	0.745722	0.346658	0.017632
	C1411	C	0.750307	0.352022	0.026447
	C1412	C	0.750555	0.363808	0.026561
	C1413	C	0.746073	0.370545	0.017498
	C1414	C	0.741377	0.365138	0.008525
	C1415	C	0.741276	0.353334	0.008775
	H1416	H	0.753780	0.346890	0.033275
	H1417	H	0.737763	0.349208	0.001947
	C1418	C	0.746339	0.382534	0.017372
	C1419	C	0.751057	0.387942	0.026332
	C1420	C	0.751295	0.399739	0.025996
	C1421	C	0.747038	0.406391	0.017027
	C1422	C	0.742380	0.401032	0.008252
	C1423	C	0.741936	0.389260	0.008260
	H1424	H	0.754879	0.403875	0.032786
	H1425	H	0.739067	0.406125	0.001319
	C1426	C	0.736930	0.372129	-0.000522
	C1427	C	0.737202	0.383587	-0.000653
	H1428	H	0.733348	0.367999	-0.007306
	H1429	H	0.733831	0.388695	-0.007547
	C1430	C	0.755222	0.369490	0.035510
	C1431	C	0.755449	0.380953	0.035406
	H1432	H	0.758596	0.364378	0.042402
	H1433	H	0.759001	0.385086	0.042209
	N1434	N	0.741389	0.329182	0.009825
	C1435	C	0.745730	0.334218	0.017662
	H1436	H	0.749435	0.329634	0.024842
	N1437	N	0.751573	0.423908	0.024677
	C1438	C	0.747506	0.418789	0.016718
	H1439	H	0.744254	0.423428	0.009323
	C1440	C	0.742404	0.531891	0.113628
	C1441	C	0.732225	0.535413	0.119552
	C1442	C	0.731228	0.535713	0.131419
	C1443	C	0.740754	0.532345	0.137644
	C1444	C	0.751122	0.528772	0.131656
	C1445	C	0.751745	0.528629	0.119801
	H1446	H	0.724994	0.537952	0.114833
	H1447	H	0.759619	0.525919	0.115239
	C1448	C	0.739929	0.532532	0.149707
	C1449	C	0.729570	0.536113	0.155713
	C1450	C	0.728952	0.536220	0.167581
	C1451	C	0.738286	0.532857	0.173727
	C1452	C	0.748450	0.529338	0.167774
	C1453	C	0.749454	0.529125	0.155915
	H1454	H	0.721102	0.538937	0.172181
	H1455	H	0.755687	0.526741	0.172464
	C1456	C	0.760603	0.525411	0.138126
	C1457	C	0.759810	0.525570	0.149654
	H1458	H	0.768459	0.522715	0.133538
	H1459	H	0.767042	0.522999	0.154364
	C1460	C	0.720888	0.539296	0.137693
	C1461	C	0.720104	0.539491	0.149226
	H1462	H	0.713656	0.541870	0.132985
	H1463	H	0.712254	0.542215	0.153807
	N1464	N	0.752579	0.528435	0.095707
	C1465	C	0.743288	0.531545	0.101140
	H1466	H	0.735685	0.534042	0.096765
	N1467	N	0.728536	0.536300	0.191989
	C1468	C	0.737568	0.532968	0.186213
	H1469	H	0.745202	0.530055	0.190374
	C1470	C	0.735106	0.505881	0.425847
	C1471	C	0.742708	0.512279	0.419095
	C1472	C	0.741577	0.514234	0.407470
	C1473	C	0.732545	0.509560	0.402332
	C1474	C	0.724824	0.503005	0.409150
	C1475	C	0.726231	0.501329	0.420749
	H1476	H	0.749556	0.515832	0.422989
	H1477	H	0.720348	0.496397	0.425964
	C1478	C	0.731233	0.511430	0.390530
	C1479	C	0.738901	0.518059	0.383728
	C1480	C	0.737423	0.519832	0.372151
	C1481	C	0.728613	0.515183	0.367035
	C1482	C	0.721117	0.508638	0.373755
	C1483	C	0.722231	0.506712	0.385386
	H1484	H	0.743214	0.524888	0.366959
	H1485	H	0.714292	0.505046	0.369859
	C1486	C	0.715813	0.498360	0.403751
	C1487	C	0.714591	0.500103	0.392460
	H1488	H	0.709973	0.493384	0.408960
	H1489	H	0.707753	0.496527	0.388567
	C1490	C	0.749208	0.520853	0.400396
	C1491	C	0.747924	0.522685	0.389125
	H1492	H	0.756060	0.524410	0.404284
	H1493	H	0.753731	0.527706	0.383926
	N1494	N	0.729194	0.498755	0.444475
	C1495	C	0.736395	0.504041	0.438093
	H1496	H	0.743686	0.507539	0.441502
	N1497	N	0.733617	0.523505	0.348648
	C1498	C	0.727237	0.517096	0.354814
	H1499	H	0.720449	0.512859	0.351268
	C1500	C	0.380960	0.740860	0.493974
	C1501	C	0.374481	0.750728	0.491149
	C1502	C	0.362703	0.751030	0.491891
	C1503	C	0.357140	0.741093	0.495594
	C1504	C	0.363689	0.731043	0.498487
	C1505	C	0.375437	0.731125	0.497628
	H1506	H	0.378697	0.758265	0.488335
	H1507	H	0.380436	0.723501	0.499823
	C1508	C	0.345178	0.741193	0.496384
	C1509	C	0.338625	0.751240	0.493487
	C1510	C	0.326875	0.751138	0.494296
	C1511	C	0.321362	0.741379	0.497882
	C1512	C	0.327847	0.731525	0.500739
	C1513	C	0.339621	0.731247	0.500065
	H1514	H	0.321866	0.758754	0.492098
	H1515	H	0.323642	0.723972	0.503521
	C1516	C	0.357871	0.721141	0.502199
	C1517	C	0.346440	0.721235	0.502947
	H1518	H	0.362880	0.713534	0.504401
	H1519	H	0.342231	0.713689	0.505758
	C1520	C	0.355880	0.761050	0.489042
	C1521	C	0.344446	0.761148	0.489803
	H1522	H	0.360088	0.768599	0.486246
	H1523	H	0.339438	0.768762	0.487625
	N1524	N	0.399339	0.731775	0.495676
	C1525	C	0.393353	0.740717	0.493107
	H1526	H	0.397180	0.748566	0.490150
	N1527	N	0.302902	0.750304	0.496045
	C1528	C	0.308981	0.741413	0.498592
	H1529	H	0.305223	0.733477	0.501379
	C1530	C	0.368365	0.046480	0.752626
	C1531	C	0.375328	0.054704	0.755887
	C1532	C	0.387002	0.052600	0.755914
	C1533	C	0.391956	0.041840	0.752581
	C1534	C	0.384912	0.033427	0.749309
	C1535	C	0.373288	0.035906	0.749390
	H1536	H	0.371558	0.062892	0.758339
	H1537	H	0.367935	0.029554	0.746847
	C1538	C	0.403814	0.039545	0.752433
	C1539	C	0.410877	0.047987	0.755609
	C1540	C	0.422530	0.045591	0.755263
	C1541	C	0.427449	0.035070	0.751862
	C1542	C	0.420457	0.026772	0.748822
	C1543	C	0.408765	0.028806	0.749030
	H1544	H	0.427929	0.052003	0.757613
	H1545	H	0.424206	0.018637	0.746194
	C1546	C	0.390118	0.022643	0.745991
	C1547	C	0.401450	0.020444	0.745864
	H1548	H	0.384742	0.016264	0.743552
	H1549	H	0.405208	0.012283	0.743322
	C1550	C	0.394317	0.060928	0.759157
	C1551	C	0.405654	0.058736	0.759011
	H1552	H	0.390554	0.069083	0.761717
	H1553	H	0.411031	0.065117	0.761456
	N1554	N	0.349685	0.041636	0.749415
	C1555	C	0.356112	0.048994	0.752511
	H1556	H	0.352930	0.057345	0.755422
	N1557	N	0.446386	0.040200	0.753763
	C1558	C	0.439746	0.032746	0.751282
	H1559	H	0.442973	0.024364	0.748443
	C1560	C	0.572012	0.747948	0.479747
	C1561	C	0.576932	0.758377	0.478047
	C1562	C	0.588413	0.759360	0.479233
	C1563	C	0.595281	0.749554	0.482229
	C1564	C	0.590331	0.738920	0.483894
	C1565	C	0.578830	0.738328	0.482617
	H1566	H	0.571720	0.765825	0.475811
	H1567	H	0.575050	0.730259	0.483911
	C1568	C	0.606940	0.750371	0.483613
	C1569	C	0.611889	0.761012	0.482015
	C1570	C	0.623346	0.761640	0.483536
	C1571	C	0.630101	0.752043	0.486609
	C1572	C	0.625201	0.741588	0.488113
	C1573	C	0.613781	0.740570	0.486679
	H1574	H	0.627128	0.769717	0.482367
	H1575	H	0.630366	0.734149	0.490476
	C1576	C	0.597440	0.729156	0.486896
	C1577	C	0.608580	0.729938	0.488221
	H1578	H	0.593652	0.721091	0.488102
	H1579	H	0.613775	0.722489	0.490500
	C1580	C	0.593646	0.769968	0.477591
	C1581	C	0.604791	0.770751	0.478913
	H1582	H	0.588461	0.777409	0.475267
	H1583	H	0.608585	0.778808	0.477658
	N1584	N	0.555319	0.737657	0.480446
	C1585	C	0.559864	0.747112	0.478712
	H1586	H	0.554924	0.754920	0.476572
	N1587	N	0.646819	0.762272	0.487119
	C1588	C	0.642109	0.752858	0.488365
	H1589	H	0.646826	0.745016	0.490851
	C1590	C	0.715267	0.596477	0.513359
	C1591	C	0.719590	0.602647	0.503825
	C1592	C	0.719173	0.614481	0.503526
	C1593	C	0.714194	0.620434	0.513098
	C1594	C	0.709684	0.614207	0.522769
	C1595	C	0.710318	0.602377	0.522717
	H1596	H	0.723419	0.598141	0.496580
	H1597	H	0.706975	0.597616	0.530083
	C1598	C	0.713828	0.632460	0.513040
	C1599	C	0.718474	0.638675	0.503427
	C1600	C	0.718194	0.650486	0.503627
	C1601	C	0.713416	0.656392	0.513054
	C1602	C	0.708776	0.650241	0.522448
	C1603	C	0.708915	0.638417	0.522637
	H1604	H	0.721791	0.655213	0.496374
	H1605	H	0.705131	0.654771	0.529761
	C1606	C	0.704690	0.620431	0.532291
	C1607	C	0.704317	0.631929	0.532226
	H1608	H	0.701222	0.615686	0.539600
	H1609	H	0.700550	0.636453	0.539492
	C1610	C	0.723674	0.620969	0.493890
	C1611	C	0.723352	0.632461	0.493849
	H1612	H	0.727401	0.616450	0.486606
	H1613	H	0.726816	0.637205	0.486540
	N1614	N	0.712765	0.578129	0.522278
	C1615	C	0.716171	0.584019	0.513539
	H1616	H	0.720148	0.580012	0.505906
	N1617	N	0.717972	0.674551	0.504955
	C1618	C	0.713377	0.668829	0.513230
	H1619	H	0.709101	0.672753	0.520750
	N1620	N	0.479790	0.232257	-0.018001
	C1621	C	0.483573	0.229234	-0.007423
	C1622	C	0.495484	0.228771	-0.009131
	N1623	N	0.498582	0.231498	-0.020325
	C1624	C	0.502329	0.225757	-0.000067
	C1625	C	0.514862	0.224730	-0.001533
	C1626	C	0.496441	0.224073	0.010480
	H1627	H	0.501152	0.221608	0.017744
	C1628	C	0.484643	0.225047	0.012059
	H1629	H	0.480711	0.223745	0.020522
	C1630	C	0.477721	0.227855	0.003213
	C1631	C	0.465241	0.228673	0.004812
	C1632	C	0.521621	0.227278	0.007163
	C1633	C	0.459405	0.220291	0.011028
	C1634	C	0.458824	0.237731	0.000012
	C1635	C	0.520428	0.220907	-0.011699
	C1636	C	0.532114	0.219578	-0.013082
	H1637	H	0.515520	0.218690	-0.018523
	C1638	C	0.447102	0.238293	0.001180
	H1639	H	0.463139	0.244433	-0.004615
	C1640	C	0.538709	0.222075	-0.004343
	H1641	H	0.536277	0.216490	-0.020926
	C1642	C	0.533329	0.226041	0.005785
	H1643	H	0.517665	0.230485	0.015021
	C1644	C	0.447693	0.220824	0.012235
	H1645	H	0.464119	0.213099	0.014652
	C1646	C	0.441408	0.229903	0.007458
	H1647	H	0.442337	0.245180	-0.002872
	H1648	H	0.443262	0.214166	0.016816
	H1649	H	0.538335	0.227834	0.012693
	C1650	C	0.489194	0.233694	-0.025351
	H1651	H	0.471890	0.231691	-0.020359
	C1652	C	0.488485	0.236667	-0.037470
	C1653	C	0.497466	0.233441	-0.045243
	C1654	C	0.497057	0.236228	-0.056748
	H1655	H	0.504758	0.228755	-0.042093
	C1656	C	0.479048	0.242742	-0.041525
	C1657	C	0.487649	0.242343	-0.060744
	H1658	H	0.503940	0.233499	-0.062701
	C1659	C	0.478636	0.245494	-0.053040
	H1660	H	0.472134	0.245509	-0.035636
	H1661	H	0.471367	0.250163	-0.056246
	C1662	C	0.551302	0.220688	-0.006218
	O1663	O	0.556004	0.212607	-0.010959
	N1664	N	0.557113	0.229450	-0.002272
	H1665	H	0.552702	0.236552	0.000515
	C1666	C	0.428778	0.229851	0.008324
	O1667	O	0.423989	0.221177	0.007903
	N1668	N	0.423082	0.240389	0.010047
	H1669	H	0.427480	0.247082	0.011818
	C1670	C	0.487028	0.245528	-0.073144
	O1671	O	0.478350	0.245267	-0.077806
	N1672	N	0.496886	0.249769	-0.078252
	H1673	H	0.502924	0.251938	-0.073227
	N1674	N	0.760370	0.496876	0.031174
	C1675	C	0.761674	0.507307	0.025665
	C1676	C	0.761206	0.505194	0.013982
	N1677	N	0.759806	0.493872	0.012670
	C1678	C	0.762477	0.514000	0.005629
	C1679	C	0.762681	0.512068	-0.006775
	C1680	C	0.763724	0.524665	0.009890
	H1681	H	0.764458	0.531816	0.003973
	C1682	C	0.763640	0.526647	0.021537
	H1683	H	0.764323	0.535205	0.024192
	C1684	C	0.762400	0.518087	0.029918
	C1685	C	0.762404	0.520106	0.042233
	C1686	C	0.769330	0.518342	-0.014726
	C1687	C	0.770662	0.526345	0.046503
	C1688	C	0.754227	0.515707	0.050059
	C1689	C	0.756397	0.503757	-0.011019
	C1690	C	0.756733	0.501798	-0.022582
	H1691	H	0.751171	0.498755	-0.005179
	C1692	C	0.754369	0.517334	0.061654
	H1693	H	0.747652	0.511034	0.046940
	C1694	C	0.763398	0.508079	-0.030370
	H1695	H	0.751896	0.495300	-0.025713
	C1696	C	0.769677	0.516422	-0.026305
	H1697	H	0.774534	0.524596	-0.011769
	C1698	C	0.770851	0.527981	0.058088
	H1699	H	0.777191	0.529653	0.040682
	C1700	C	0.762611	0.523642	0.065768
	H1701	H	0.748161	0.513643	0.067572
	H1702	H	0.777414	0.532572	0.061347
	H1703	H	0.775155	0.521122	-0.032190
	C1704	C	0.759188	0.489165	0.022922
	H1705	H	0.761794	0.494870	0.039345
	C1706	C	0.758286	0.477028	0.025526
	C1707	C	0.762591	0.469159	0.017503
	C1708	C	0.761842	0.457616	0.019736
	H1709	H	0.766517	0.472267	0.009520
	C1710	C	0.753225	0.473049	0.035874
	C1711	C	0.756718	0.453682	0.030042
	H1712	H	0.765442	0.451607	0.013600
	C1713	C	0.752497	0.461496	0.038102
	H1714	H	0.749678	0.479016	0.042071
	H1715	H	0.748636	0.458332	0.046084
	C1716	C	0.763475	0.505838	-0.042809
	O1717	O	0.763364	0.496349	-0.046278
	N1718	N	0.763523	0.515490	-0.049982
	H1719	H	0.762209	0.523228	-0.046534
	C1720	C	0.763335	0.525021	0.078274
	O1721	O	0.772222	0.523957	0.082652
	N1722	N	0.753109	0.528068	0.084243
	H1723	H	0.746217	0.530134	0.079869
	C1724	C	0.755770	0.441235	0.032634
	O1725	O	0.757296	0.437009	0.041934
	N1726	N	0.751955	0.435325	0.023840
	H1727	H	0.749554	0.439693	0.016766
	N1728	N	0.729400	0.505583	0.534438
	C1729	C	0.733813	0.495733	0.529352
	C1730	C	0.730978	0.497121	0.517915
	N1731	N	0.726140	0.507855	0.516092
	C1732	C	0.733262	0.488249	0.510228
	C1733	C	0.730606	0.489390	0.498113
	C1734	C	0.738467	0.478373	0.514782
	H1735	H	0.740327	0.471238	0.509353
	C1736	C	0.740945	0.477091	0.526205
	H1737	H	0.744986	0.469162	0.529069
	C1738	C	0.738673	0.485683	0.533995
	C1739	C	0.741355	0.484324	0.546067
	C1740	C	0.737692	0.484371	0.489418
	C1741	C	0.739467	0.474264	0.552370
	C1742	C	0.745821	0.493084	0.551656
	C1743	C	0.720769	0.495474	0.494952
	C1744	C	0.718060	0.496399	0.483692
	H1745	H	0.715067	0.499311	0.501459
	C1746	C	0.748137	0.491928	0.563034
	H1747	H	0.747620	0.500853	0.546947
	C1748	C	0.725168	0.491336	0.475163
	H1749	H	0.710377	0.500982	0.481368
	C1750	C	0.735091	0.485408	0.478116
	H1751	H	0.745448	0.479833	0.491528
	C1752	C	0.741848	0.473038	0.563723
	H1753	H	0.735798	0.467426	0.548409
	C1754	C	0.746379	0.481781	0.569156
	H1755	H	0.751230	0.498963	0.567183
	H1756	H	0.740153	0.465298	0.568546
	H1757	H	0.740575	0.481396	0.471531
	C1758	C	0.725488	0.512775	0.525921
	H1759	H	0.727641	0.506614	0.542838
	C1760	C	0.721521	0.524614	0.527760
	C1761	C	0.715124	0.530477	0.519684
	C1762	C	0.711668	0.541826	0.520935
	H1763	H	0.713008	0.526004	0.512377
	C1764	C	0.724200	0.530380	0.537251
	C1765	C	0.714549	0.547584	0.530311
	H1766	H	0.706592	0.546232	0.514748
	C1767	C	0.720705	0.541718	0.538512
	H1768	H	0.729252	0.526099	0.543518
	H1769	H	0.722769	0.546250	0.545795
	C1770	C	0.722253	0.492772	0.463043
	O1771	O	0.713253	0.490368	0.460007
	N1772	N	0.730652	0.497320	0.455703
	H1773	H	0.737634	0.499913	0.459017
	C1774	C	0.748323	0.480331	0.581584
	O1775	O	0.742565	0.474481	0.587985
	N1776	N	0.757361	0.485937	0.585055
	H1777	H	0.762906	0.489286	0.579121
	C1778	C	0.711407	0.559989	0.531652
	O1779	O	0.707727	0.563803	0.540643
	N1780	N	0.714222	0.566686	0.522030
	H1781	H	0.718026	0.562902	0.515053
	N1782	N	0.488502	0.729201	0.508408
	C1783	C	0.484637	0.727505	0.497862
	C1784	C	0.472775	0.727351	0.499875
	N1785	N	0.469787	0.728862	0.511250
	C1786	C	0.465893	0.725738	0.490885
	C1787	C	0.453439	0.725151	0.492598
	C1788	C	0.471639	0.724996	0.480154
	H1789	H	0.466900	0.723589	0.472934
	C1790	C	0.483355	0.725572	0.478315
	H1791	H	0.487172	0.725022	0.469735
	C1792	C	0.490319	0.727053	0.487066
	C1793	C	0.502738	0.727393	0.485258
	C1794	C	0.446218	0.729063	0.484227
	C1795	C	0.509142	0.719216	0.478858
	C1796	C	0.508544	0.735716	0.490119
	C1797	C	0.448431	0.720406	0.502657
	C1798	C	0.436850	0.719473	0.504230
	H1799	H	0.453712	0.717161	0.509236
	C1800	C	0.520241	0.735732	0.488864
	H1801	H	0.503760	0.742258	0.494890
	C1802	C	0.429802	0.723318	0.495804
	H1803	H	0.433129	0.715664	0.511980
	C1804	C	0.434608	0.728233	0.485805
	H1805	H	0.449717	0.733011	0.476478
	C1806	C	0.520835	0.719196	0.477578
	H1807	H	0.504903	0.712587	0.475169
	C1808	C	0.526509	0.727527	0.482451
	H1809	H	0.524560	0.742025	0.492960
	H1810	H	0.525728	0.712665	0.472882
	H1811	H	0.429248	0.731097	0.479145
	C1812	C	0.479181	0.730040	0.516073
	H1813	H	0.496553	0.728150	0.510538
	C1814	C	0.480167	0.731648	0.528204
	C1815	C	0.473129	0.726104	0.536332
	C1816	C	0.474093	0.727433	0.547854
	H1817	H	0.466932	0.720774	0.533467
	C1818	C	0.488149	0.738609	0.531878
	C1819	C	0.482015	0.734422	0.551493
	H1820	H	0.468755	0.723077	0.554177
	C1821	C	0.489062	0.739977	0.543406
	H1822	H	0.493488	0.743057	0.525640
	H1823	H	0.495383	0.745164	0.546228
	C1824	C	0.417326	0.722320	0.497856
	O1825	O	0.413374	0.713823	0.502044
	N1826	N	0.410707	0.731939	0.494748
	H1827	H	0.414518	0.739177	0.492420
	C1828	C	0.539166	0.726823	0.481610
	O1829	O	0.544600	0.717845	0.482167
	N1830	N	0.544089	0.737174	0.479744
	H1831	H	0.539183	0.744196	0.477789
	C1832	C	0.482980	0.735661	0.564007
	O1833	O	0.483683	0.727471	0.570410
	N1834	N	0.482918	0.746877	0.567250
	H1835	H	0.482016	0.753193	0.561244
	N1836	N	0.520451	0.037489	0.742651
	C1837	C	0.530119	0.030750	0.739774
	C1838	C	0.526552	0.019536	0.740427
	N1839	N	0.515179	0.019699	0.743539
	C1840	C	0.534296	0.010177	0.738222
	C1841	C	0.531005	-0.001759	0.739376
	C1842	C	0.545310	0.012987	0.735010
	H1843	H	0.551597	0.006249	0.732939
	C1844	C	0.548526	0.024193	0.733854
	H1845	H	0.557136	0.025673	0.730923
	C1846	C	0.541027	0.033560	0.735975
	C1847	C	0.544407	0.045418	0.734732
	C1848	C	0.538495	-0.010596	0.742958
	C1849	C	0.554596	0.048563	0.738512
	C1850	C	0.537462	0.053965	0.729790
	C1851	C	0.520172	-0.004632	0.737124
	C1852	C	0.516948	-0.015709	0.738456
	H1853	H	0.514173	0.001903	0.734293
	C1854	C	0.540424	0.065157	0.728873
	H1855	H	0.529691	0.051742	0.726511
	C1856	C	0.524453	-0.024380	0.742096
	H1857	H	0.508523	-0.017760	0.736783
	C1858	C	0.535313	-0.021707	0.744272
	H1859	H	0.546818	-0.008688	0.745044
	C1860	C	0.557637	0.059728	0.737528
	H1861	H	0.560051	0.042232	0.742564
	C1862	C	0.550673	0.068144	0.732553
	H1863	H	0.534700	0.071590	0.725382
	H1864	H	0.565424	0.062081	0.740691
	H1865	H	0.541124	-0.028276	0.747403
	C1866	C	0.511737	0.030375	0.744644
	H1867	H	0.520114	0.045646	0.744910
	C1868	C	0.500053	0.034505	0.747586
	C1869	C	0.492769	0.027473	0.753960
	C1870	C	0.481565	0.031028	0.756538
	H1871	H	0.496043	0.019175	0.756774
	C1872	C	0.495877	0.045269	0.743983
	C1873	C	0.477381	0.041695	0.752746
	H1874	H	0.476071	0.025622	0.761646
	C1875	C	0.484670	0.048814	0.746575
	H1876	H	0.501329	0.050737	0.738908
	H1877	H	0.481349	0.057096	0.743790
	C1878	C	0.520661	-0.036237	0.743396
	O1879	O	0.511274	-0.038238	0.747277
	N1880	N	0.528644	-0.044693	0.739660
	H1881	H	0.535867	-0.042452	0.735304
	C1882	C	0.553937	0.080227	0.732223
	O1883	O	0.559561	0.083731	0.739305
	N1884	N	0.550267	0.086922	0.723073
	H1885	H	0.547229	0.083185	0.716445
	C1886	C	0.465196	0.045615	0.754993
	O1887	O	0.462310	0.055222	0.757580
	N1888	N	0.457653	0.037619	0.752729
	H1889	H	0.460728	0.030058	0.749640
	C1890	C	0.505653	0.261461	0.831904
	C1891	C	0.510027	0.268197	0.839827
	C1892	C	0.508178	0.266033	0.851518
	C1893	C	0.501656	0.256812	0.855493
	C1894	C	0.497123	0.249987	0.847474
	C1895	C	0.499221	0.252426	0.835865
	H1896	H	0.514999	0.275177	0.836817
	H1897	H	0.495837	0.247221	0.829751
	C1898	C	0.499737	0.254408	0.867338
	C1899	C	0.504349	0.261173	0.875356
	C1900	C	0.502450	0.258590	0.886961
	C1901	C	0.496074	0.249513	0.890922
	C1902	C	0.491493	0.242937	0.883000
	C1903	C	0.493220	0.245183	0.871313
	H1904	H	0.505945	0.263705	0.893067
	H1905	H	0.486527	0.235954	0.886030
	C1906	C	0.490543	0.240767	0.851714
	C1907	C	0.488677	0.238493	0.863038
	H1908	H	0.487075	0.235631	0.845604
	H1909	H	0.483698	0.231518	0.866059
	C1910	C	0.512660	0.272769	0.859795
	C1911	C	0.510850	0.270453	0.871116
	H1912	H	0.517577	0.279789	0.856779
	H1913	H	0.514297	0.275604	0.877224
	N1914	N	0.504424	0.257477	0.812269
	C1915	C	0.507918	0.263792	0.819645
	H1916	H	0.512899	0.271061	0.817139
	N1917	N	0.498762	0.252322	0.910537
	C1918	C	0.494219	0.246821	0.903168
	H1919	H	0.489074	0.239641	0.905513
	C1920	C	0.772283	0.519894	0.859784
	C1921	C	0.772231	0.509967	0.866644
	C1922	C	0.770956	0.510342	0.878497
	C1923	C	0.769678	0.521047	0.883742
	C1924	C	0.769723	0.531164	0.876805
	C1925	C	0.771021	0.530391	0.864995
	H1926	H	0.773195	0.501846	0.862669
	H1927	H	0.771051	0.538063	0.859699
	C1928	C	0.768374	0.521635	0.895774
	C1929	C	0.768332	0.511520	0.902714
	C1930	C	0.767059	0.512295	0.914526
	C1931	C	0.765821	0.522795	0.919732
	C1932	C	0.765851	0.532720	0.912868
	C1933	C	0.767100	0.532342	0.901016
	H1934	H	0.767031	0.504627	0.919828
	H1935	H	0.764894	0.540845	0.916835
	C1936	C	0.768414	0.541847	0.882309
	C1937	C	0.767168	0.542409	0.893809
	H1938	H	0.768446	0.549506	0.877006
	H1939	H	0.766194	0.550536	0.897777
	C1940	C	0.770874	0.500276	0.885706
	C1941	C	0.769628	0.500838	0.897206
	H1942	H	0.771837	0.492150	0.881736
	H1943	H	0.769585	0.493178	0.902508
	N1944	N	0.773657	0.528280	0.840970
	C1945	C	0.773613	0.519297	0.847321
	H1946	H	0.774511	0.510848	0.843760
	N1947	N	0.764584	0.514484	0.938602
	C1948	C	0.764565	0.523429	0.932192
	H1949	H	0.763697	0.531899	0.935712
	C1950	C	0.777147	0.497776	0.669824
	C1951	C	0.770592	0.489342	0.666263
	C1952	C	0.768905	0.488180	0.654781
	C1953	C	0.774074	0.495635	0.646484
	C1954	C	0.780885	0.504114	0.650046
	C1955	C	0.782242	0.505050	0.661621
	H1956	H	0.766625	0.483715	0.672552
	H1957	H	0.787314	0.511561	0.664363
	C1958	C	0.772360	0.494705	0.634780
	C1959	C	0.765362	0.486379	0.631239
	C1960	C	0.763589	0.485780	0.619716
	C1961	C	0.768617	0.493110	0.611523
	C1962	C	0.775617	0.501183	0.615030
	C1963	C	0.777524	0.502164	0.626483
	H1964	H	0.758187	0.479537	0.617010
	H1965	H	0.779503	0.506876	0.608751
	C1966	C	0.786062	0.511468	0.641497
	C1967	C	0.784493	0.510523	0.630302
	H1968	H	0.791288	0.517846	0.644231
	H1969	H	0.788455	0.516155	0.624010
	C1970	C	0.762030	0.479747	0.650951
	C1971	C	0.760323	0.478913	0.639772
	H1972	H	0.758146	0.474051	0.657232
	H1973	H	0.755075	0.472554	0.637040
	N1974	N	0.783387	0.507438	0.685477
	C1975	C	0.778429	0.499104	0.681995
	H1976	H	0.774668	0.492835	0.687935
	N1977	N	0.759229	0.486014	0.596227
	C1978	C	0.766452	0.492507	0.599458
	H1979	H	0.771055	0.498107	0.593426
	C1980	C	0.493898	0.763175	0.653568
	C1981	C	0.496675	0.770306	0.644165
	C1982	C	0.494651	0.767466	0.633138
	C1983	C	0.489614	0.757124	0.631407
	C1984	C	0.486720	0.749879	0.640949
	C1985	C	0.488926	0.753032	0.651806
	H1986	H	0.500515	0.778140	0.645474
	H1987	H	0.486764	0.747513	0.659059
	C1988	C	0.487539	0.754030	0.620275
	C1989	C	0.490510	0.761220	0.610710
	C1990	C	0.488492	0.757953	0.599826
	C1991	C	0.483572	0.747774	0.598091
	C1992	C	0.480618	0.740768	0.607537
	C1993	C	0.482520	0.743675	0.618562
	H1994	H	0.490785	0.763361	0.592541
	H1995	H	0.476867	0.732880	0.606221
	C1996	C	0.481630	0.739508	0.638987
	C1997	C	0.479627	0.736563	0.628350
	H1998	H	0.479422	0.734045	0.646260
	H1999	H	0.475805	0.728716	0.627038
	C2000	C	0.497495	0.774593	0.623344
	C2001	C	0.495538	0.771621	0.612697
	H2002	H	0.501294	0.782453	0.624648
	H2003	H	0.497758	0.777082	0.605429
	N2004	N	0.494046	0.759499	0.673615
	C2005	C	0.496227	0.766196	0.665110
	H2006	H	0.499946	0.774300	0.666039
	N2007	N	0.484460	0.750316	0.577777
	C2008	C	0.481581	0.744307	0.586599
	H2009	H	0.477284	0.736455	0.586198
	C2010	C	0.521278	0.866437	0.747831
	C2011	C	0.513288	0.874827	0.751851
	C2012	C	0.515105	0.886341	0.750194
	C2013	C	0.525310	0.889649	0.744292
	C2014	C	0.533451	0.881154	0.740165
	C2015	C	0.531279	0.869743	0.742003
	H2016	H	0.505551	0.872328	0.756343
	H2017	H	0.537447	0.863261	0.738889
	C2018	C	0.527362	0.901304	0.742562
	C2019	C	0.519223	0.909792	0.746708
	C2020	C	0.521429	0.921199	0.744955
	C2021	C	0.531472	0.924518	0.739222
	C2022	C	0.539442	0.916139	0.735139
	C2023	C	0.537580	0.904620	0.736693
	H2024	H	0.515262	0.927667	0.748102
	H2025	H	0.547199	0.918650	0.730700
	C2026	C	0.543665	0.884729	0.734240
	C2027	C	0.545628	0.895871	0.732593
	H2028	H	0.549817	0.878254	0.731103
	H2029	H	0.553375	0.898373	0.728120
	C2030	C	0.507031	0.895085	0.754254
	C2031	C	0.508988	0.906225	0.752594
	H2032	H	0.499278	0.892582	0.758712
	H2033	H	0.502827	0.912703	0.755708
	N2034	N	0.526324	0.846567	0.746212
	C2035	C	0.519175	0.854380	0.749783
	H2036	H	0.511233	0.852408	0.754499
	N2037	N	0.526386	0.944285	0.741243
	C2038	C	0.533621	0.936599	0.737570
	H2039	H	0.541644	0.938677	0.733095
	C2040	C	0.548657	0.176566	0.714312
	C2041	C	0.555450	0.169745	0.721359
	C2042	C	0.555454	0.157931	0.721462
	C2043	C	0.548506	0.152679	0.714145
	C2044	C	0.541713	0.159572	0.706839
	C2045	C	0.541885	0.171352	0.707099
	H2046	H	0.560681	0.173718	0.726956
	H2047	H	0.536643	0.176617	0.701647
	C2048	C	0.548250	0.140689	0.714228
	C2049	C	0.554860	0.133807	0.721709
	C2050	C	0.554267	0.122051	0.721852
	C2051	C	0.547393	0.116840	0.714737
	C2052	C	0.541037	0.123635	0.707273
	C2053	C	0.541282	0.135437	0.706931
	H2054	H	0.559186	0.116806	0.727614
	H2055	H	0.535704	0.119666	0.701775
	C2056	C	0.534844	0.154053	0.699493
	C2057	C	0.534661	0.142590	0.699513
	H2058	H	0.529760	0.159313	0.693900
	H2059	H	0.529415	0.138612	0.693931
	C2060	C	0.562177	0.150773	0.728783
	C2061	C	0.561870	0.139317	0.728921
	H2062	H	0.567496	0.154747	0.734295
	H2063	H	0.566937	0.134058	0.734530
	N2064	N	0.541547	0.195364	0.709232
	C2065	C	0.548483	0.188987	0.714710
	H2066	H	0.554302	0.192506	0.720205
	N2067	N	0.551476	0.098230	0.722746
	C2068	C	0.546638	0.104469	0.715246
	H2069	H	0.541490	0.100894	0.709127
	N2070	N	0.521489	0.258378	0.738314
	C2071	C	0.525339	0.264546	0.728753
	C2072	C	0.524874	0.275894	0.732262
	N2073	N	0.520979	0.276349	0.743526
	C2074	C	0.527932	0.284781	0.724527
	C2075	C	0.526973	0.296894	0.727633
	C2076	C	0.531785	0.281356	0.713651
	H2077	H	0.534513	0.287712	0.707412
	C2078	C	0.532759	0.269987	0.710557
	H2079	H	0.536218	0.267995	0.702087
	C2080	C	0.529782	0.261075	0.718039
	C2081	C	0.530846	0.249032	0.714826
	C2082	C	0.524056	0.305561	0.719738
	C2083	C	0.527784	0.245698	0.704274
	C2084	C	0.534902	0.240496	0.722313
	C2085	C	0.528750	0.300134	0.738633
	C2086	C	0.527673	0.311427	0.741605
	H2087	H	0.531009	0.293710	0.744945
	C2088	C	0.535656	0.229153	0.719505
	H2089	H	0.537617	0.242842	0.730395
	C2090	C	0.524740	0.319943	0.733683
	H2091	H	0.529002	0.313779	0.750151
	C2092	C	0.522970	0.316873	0.722677
	H2093	H	0.522317	0.303372	0.711275
	C2094	C	0.528607	0.234370	0.701392
	H2095	H	0.524419	0.252033	0.698386
	C2096	C	0.532705	0.225967	0.708897
	H2097	H	0.538450	0.222760	0.725619
	H2098	H	0.526000	0.231884	0.693307
	H2099	H	0.520330	0.323312	0.716531
	C2100	C	0.519174	0.265907	0.746954
	H2101	H	0.518845	0.250444	0.738446
	C2102	C	0.515181	0.262377	0.758532
	C2103	C	0.509255	0.270273	0.765637
	C2104	C	0.505560	0.267205	0.776702
	H2105	H	0.507645	0.278837	0.762335
	C2106	C	0.517241	0.251283	0.762767
	C2107	C	0.507731	0.256153	0.780914
	H2108	H	0.500801	0.273296	0.782047
	C2109	C	0.513507	0.248218	0.773818
	H2110	H	0.521974	0.245113	0.757507
	H2111	H	0.515046	0.239665	0.777161
	C2112	C	0.523744	0.332060	0.737171
	O2113	O	0.519943	0.334763	0.746550
	N2114	N	0.527631	0.339885	0.728879
	H2115	H	0.532043	0.337030	0.721764
	C2116	C	0.532894	0.213749	0.705773
	O2117	O	0.526185	0.210394	0.699665
	N2118	N	0.541491	0.206736	0.710179
	H2119	H	0.547936	0.210255	0.713610
	C2120	C	0.504056	0.252609	0.792904
	O2121	O	0.499872	0.243678	0.795193
	N2122	N	0.506941	0.259864	0.801092
	H2123	H	0.511287	0.266733	0.798578
	N2124	N	0.761569	0.529124	0.751427
	C2125	C	0.772316	0.528006	0.755242
	C2126	C	0.770676	0.529542	0.767112
	N2127	N	0.759337	0.531352	0.770172
	C2128	C	0.779939	0.529085	0.773971
	C2129	C	0.778652	0.530951	0.786412
	C2130	C	0.790391	0.526363	0.768251
	H2131	H	0.797842	0.526011	0.772969
	C2132	C	0.791753	0.524383	0.756573
	H2133	H	0.800115	0.522132	0.752824
	C2134	C	0.782754	0.524916	0.749609
	C2135	C	0.784184	0.522905	0.737238
	C2136	C	0.785804	0.525281	0.793992
	C2137	C	0.793002	0.527419	0.730345
	C2138	C	0.776673	0.516527	0.731944
	C2139	C	0.770244	0.538638	0.791038
	C2140	C	0.769083	0.540641	0.802604
	H2141	H	0.764686	0.543284	0.785456
	C2142	C	0.777748	0.514947	0.720286
	H2143	H	0.769975	0.512671	0.737099
	C2144	C	0.776272	0.534971	0.810015
	H2145	H	0.762632	0.546682	0.806033
	C2146	C	0.784608	0.527185	0.805593
	H2147	H	0.792219	0.519119	0.790793
	C2148	C	0.794165	0.525786	0.718700
	H2149	H	0.798824	0.532555	0.734115
	C2150	C	0.786645	0.519411	0.713534
	H2151	H	0.771589	0.510327	0.716426
	H2152	H	0.800875	0.529526	0.713444
	H2153	H	0.790331	0.522868	0.811241
	C2154	C	0.754127	0.530836	0.760825
	H2155	H	0.759614	0.530525	0.743304
	C2156	C	0.741898	0.532321	0.760004
	C2157	C	0.735308	0.539245	0.767591
	C2158	C	0.723692	0.540555	0.767037
	H2159	H	0.739420	0.543493	0.773949
	C2160	C	0.736574	0.526785	0.751806
	C2161	C	0.718390	0.534902	0.758962
	H2162	H	0.718573	0.545920	0.772873
	C2163	C	0.724952	0.528079	0.751284
	H2164	H	0.741558	0.521284	0.746013
	H2165	H	0.720912	0.523940	0.744816
	C2166	C	0.774592	0.537114	0.822487
	O2167	O	0.772996	0.546579	0.826066
	N2168	N	0.774825	0.527383	0.829548
	H2169	H	0.775112	0.519691	0.825984
	C2170	C	0.787767	0.518445	0.700824
	O2171	O	0.791793	0.525751	0.694630
	N2172	N	0.784090	0.508495	0.696779
	H2173	H	0.782575	0.501882	0.702272
	C2174	C	0.705770	0.536238	0.758686
	O2175	O	0.700638	0.545289	0.760057
	N2176	N	0.700808	0.526155	0.756941
	H2177	H	0.705383	0.518719	0.758224
	N2178	N	0.507210	0.758487	0.745977
	C2179	C	0.511665	0.763069	0.755147
	C2180	C	0.514383	0.774121	0.751306
	N2181	N	0.511790	0.775875	0.740147
	C2182	C	0.519110	0.781439	0.758602
	C2183	C	0.522197	0.793104	0.755039
	C2184	C	0.520321	0.777049	0.769636
	H2185	H	0.524077	0.782122	0.775587
	C2186	C	0.517257	0.766193	0.773322
	H2187	H	0.518344	0.763459	0.782038
	C2188	C	0.512573	0.758837	0.766289
	C2189	C	0.509459	0.747259	0.769944
	C2190	C	0.521467	0.801907	0.762763
	C2191	C	0.516869	0.739778	0.775677
	C2192	C	0.499055	0.743315	0.767581
	C2193	C	0.526090	0.795746	0.743801
	C2194	C	0.529180	0.806570	0.740458
	H2195	H	0.526917	0.789168	0.737645
	C2196	C	0.496362	0.732248	0.770375
	H2197	H	0.492978	0.749104	0.763662
	C2198	C	0.528444	0.815204	0.748241
	H2199	H	0.532271	0.808454	0.731784
	C2200	C	0.524474	0.812768	0.759438
	H2201	H	0.518259	0.800301	0.771428
	C2202	C	0.514205	0.728707	0.778522
	H2203	H	0.524931	0.742608	0.777642
	C2204	C	0.503967	0.724811	0.775813
	H2205	H	0.488248	0.729374	0.768660
	H2206	H	0.520028	0.722917	0.782794
	H2207	H	0.524039	0.819338	0.765600
	C2208	C	0.507416	0.766608	0.737276
	H2209	H	0.505519	0.750336	0.745126
	C2210	C	0.503966	0.764136	0.726022
	C2211	C	0.510676	0.766876	0.716196
	C2212	C	0.507645	0.764035	0.705565
	H2213	H	0.518296	0.771167	0.717084
	C2214	C	0.494063	0.758635	0.724976
	C2215	C	0.497776	0.758487	0.704545
	H2216	H	0.513102	0.765838	0.698083
	C2217	C	0.491032	0.755846	0.714354
	H2218	H	0.488710	0.756723	0.732514
	H2219	H	0.483419	0.751539	0.713488
	C2220	C	0.531543	0.826884	0.744340
	O2221	O	0.539834	0.828515	0.738074
	N2222	N	0.524024	0.835609	0.748351
	H2223	H	0.516599	0.833601	0.752467
	C2224	C	0.501688	0.712559	0.777989
	O2225	O	0.502668	0.707804	0.787135
	N2226	N	0.498945	0.707193	0.768343
	H2227	H	0.499045	0.711690	0.760846
	C2228	C	0.494342	0.754838	0.693308
	O2229	O	0.489470	0.746251	0.692549
	N2230	N	0.496327	0.762391	0.684142
	H2231	H	0.499122	0.770109	0.685486
	C2232	C	0.519668	0.429705	0.730752
	C2233	C	0.516252	0.422168	0.739596
	C2234	C	0.517889	0.410439	0.738541
	C2235	C	0.523170	0.406028	0.728263
	C2236	C	0.526704	0.413658	0.719266
	C2237	C	0.524883	0.425313	0.720682
	H2238	H	0.512226	0.425507	0.747385
	H2239	H	0.527530	0.431132	0.713848
	C2240	C	0.524856	0.394138	0.726971
	C2241	C	0.521263	0.386504	0.735940
	C2242	C	0.522919	0.374844	0.734451
	C2243	C	0.528048	0.370459	0.724341
	C2244	C	0.531617	0.378005	0.715566
	C2245	C	0.530111	0.389732	0.716680
	H2246	H	0.520168	0.369016	0.741233
	H2247	H	0.535581	0.374672	0.707747
	C2248	C	0.532023	0.408991	0.708999
	C2249	C	0.533647	0.397627	0.707770
	H2250	H	0.534718	0.414819	0.702202
	H2251	H	0.537656	0.394293	0.699969
	C2252	C	0.514408	0.402542	0.747471
	C2253	C	0.516006	0.391176	0.746232
	H2254	H	0.510425	0.405876	0.755284
	H2255	H	0.513319	0.385349	0.753032
	N2256	N	0.520601	0.448961	0.723895
	C2257	C	0.517730	0.442020	0.731986
	H2258	H	0.513676	0.444937	0.740076
	N2259	N	0.526166	0.351126	0.730673
	C2260	C	0.529583	0.358150	0.722880
	H2261	H	0.533694	0.355293	0.714789
	C2262	C	0.614346	0.527141	0.740425
	C2263	C	0.620777	0.518007	0.745042
	C2264	C	0.632155	0.518816	0.746834
	C2265	C	0.637359	0.529139	0.743879
	C2266	C	0.630863	0.538442	0.739159
	C2267	C	0.619510	0.537268	0.737539
	H2268	H	0.616832	0.510180	0.747298
	H2269	H	0.614545	0.544334	0.733985
	C2270	C	0.648910	0.530154	0.745638
	C2271	C	0.655394	0.520865	0.750400
	C2272	C	0.666735	0.522053	0.752072
	C2273	C	0.671913	0.532166	0.749148
	C2274	C	0.665494	0.541273	0.744470
	C2275	C	0.654117	0.540473	0.742677
	H2276	H	0.671665	0.515024	0.755712
	H2277	H	0.669450	0.549110	0.742260
	C2278	C	0.636321	0.548752	0.736253
	C2279	C	0.647367	0.549715	0.737919
	H2280	H	0.631363	0.555800	0.732675
	H2281	H	0.651317	0.557550	0.735687
	C2282	C	0.638900	0.509578	0.751606
	C2283	C	0.649936	0.510555	0.753308
	H2284	H	0.634950	0.501749	0.753854
	H2285	H	0.654879	0.503521	0.756924
	N2286	N	0.596280	0.534410	0.734779
	C2287	C	0.602357	0.526099	0.738724
	H2288	H	0.598863	0.517935	0.741107
	N2289	N	0.689847	0.525112	0.755265
	C2290	C	0.683892	0.533268	0.750896
	H2291	H	0.687335	0.541308	0.747980
	C2292	C	0.490372	0.620041	0.754312
	C2293	C	0.491727	0.624653	0.764852
	C2294	C	0.492274	0.636323	0.765981
	C2295	C	0.491378	0.643706	0.756223
	C2296	C	0.489856	0.639066	0.745519
	C2297	C	0.489393	0.627360	0.744776
	H2298	H	0.492476	0.619048	0.772241
	H2299	H	0.488322	0.623818	0.736630
	C2300	C	0.492124	0.655569	0.757118
	C2301	C	0.493808	0.660216	0.767781
	C2302	C	0.494753	0.671885	0.768411
	C2303	C	0.494070	0.679135	0.758789
	C2304	C	0.492288	0.674530	0.748352
	C2305	C	0.491326	0.662918	0.747327
	H2306	H	0.496117	0.675448	0.776472
	H2307	H	0.491744	0.680077	0.740895
	C2308	C	0.488935	0.646686	0.735813
	C2309	C	0.489625	0.658024	0.736671
	H2310	H	0.487695	0.643128	0.727723
	H2311	H	0.488940	0.663613	0.729259
	C2312	C	0.493805	0.641257	0.776661
	C2313	C	0.494542	0.652597	0.777512
	H2314	H	0.494406	0.635680	0.784092
	H2315	H	0.495735	0.656155	0.785614
	N2316	N	0.489634	0.603483	0.743447
	C2317	C	0.490254	0.607707	0.753164
	H2318	H	0.491020	0.602373	0.760883
	N2319	N	0.497438	0.695925	0.768629
	C2320	C	0.495419	0.691352	0.759408
	H2321	H	0.494789	0.696388	0.751468
	N2322	N	0.523074	0.540645	0.727044
	C2323	C	0.513187	0.535273	0.726263
	C2324	C	0.516670	0.523668	0.725151
	N2325	N	0.528218	0.522271	0.725418
	C2326	C	0.508707	0.515509	0.723941
	C2327	C	0.511935	0.503276	0.722331
	C2328	C	0.497472	0.519759	0.724635
	H2329	H	0.490948	0.514032	0.723595
	C2330	C	0.494200	0.531215	0.726255
	H2331	H	0.485313	0.533795	0.726874
	C2332	C	0.501910	0.539424	0.727350
	C2333	C	0.498546	0.551583	0.728904
	C2334	C	0.504781	0.494746	0.726198
	C2335	C	0.490457	0.557270	0.722381
	C2336	C	0.503511	0.557894	0.736799
	C2337	C	0.522245	0.499786	0.716611
	C2338	C	0.525211	0.488422	0.714743
	H2339	H	0.527914	0.506082	0.713329
	C2340	C	0.500752	0.569415	0.737929
	H2341	H	0.509563	0.553644	0.742152
	C2342	C	0.517978	0.480058	0.718555
	H2343	H	0.533142	0.485898	0.710196
	C2344	C	0.507737	0.483354	0.724391
	H2345	H	0.496885	0.497032	0.730876
	C2346	C	0.487631	0.568777	0.723518
	H2347	H	0.486612	0.552686	0.716086
	C2348	C	0.492644	0.574965	0.731391
	H2349	H	0.504994	0.574140	0.743800
	H2350	H	0.481583	0.573141	0.718229
	H2351	H	0.501927	0.477012	0.727214
	C2352	C	0.531790	0.532373	0.726671
	H2353	H	0.524019	0.549038	0.726006
	C2354	C	0.543581	0.534951	0.727460
	C2355	C	0.552268	0.527738	0.722631
	C2356	C	0.563488	0.530004	0.723322
	H2357	H	0.550053	0.520348	0.718361
	C2358	C	0.546415	0.544522	0.732991
	C2359	C	0.566268	0.539538	0.728896
	H2360	H	0.570127	0.524531	0.719345
	C2361	C	0.557632	0.546794	0.733646
	H2362	H	0.539849	0.550063	0.736979
	H2363	H	0.559897	0.554187	0.737870
	C2364	C	0.521537	0.467874	0.716441
	O2365	O	0.526700	0.464973	0.707694
	N2366	N	0.518594	0.460219	0.725290
	H2367	H	0.515546	0.463217	0.732924
	C2368	C	0.490023	0.587540	0.731791
	O2369	O	0.487824	0.593180	0.723381
	N2370	N	0.489986	0.592112	0.742522
	H2371	H	0.490086	0.586867	0.749511
	C2372	C	0.578304	0.542212	0.729873
	O2373	O	0.581357	0.551762	0.728555
	N2374	N	0.585252	0.533078	0.733496
	H2375	H	0.581863	0.525539	0.735467
