data_Molecule from CHK

_cell_length_a		62.947064
_cell_length_b		104.279800
_cell_length_c		120.425416
_cell_angle_alpha	90.770924
_cell_angle_beta	110.869167
_cell_angle_gamma	89.972397
_symmetry_space_group_name_H-M	'P 1'
_symmetry_Int_Tables_number		1

loop_
	_symmetry_equiv_pos_as_xyz
	x,y,z

loop_
	_atom_site_label
	_atom_site_type_symbol
	_atom_site_fract_x
	_atom_site_fract_y
	_atom_site_fract_z
	C0	C	-0.013437	0.076335	0.225898
	C1	C	-0.013391	0.078508	0.238219
	C2	C	0.002317	0.074574	0.249019
	H3	H	0.017177	0.068994	0.249609
	C4	C	-0.002323	0.078457	0.259011
	C5	C	0.011165	0.076352	0.271882
	C6	C	-0.021506	0.085610	0.258235
	C7	C	-0.021155	0.088211	0.270542
	C8	C	-0.037204	0.089542	0.247447
	H9	H	-0.051960	0.095217	0.246861
	C10	C	-0.032387	0.085798	0.237477
	C11	C	-0.045040	0.088751	0.224705
	N12	N	-0.000956	0.082562	0.278312
	N13	N	-0.032642	0.082943	0.218207
	O14	O	-0.034974	0.093990	0.273438
	O15	O	0.028763	0.070605	0.276109
	O16	O	-0.062200	0.094925	0.220651
	O17	O	-0.000048	0.070197	0.222960
	C18	C	0.006927	0.083916	0.291022
	C19	C	-0.037945	0.084471	0.205647
	C20	C	-0.008419	0.083110	0.296999
	C21	C	-0.000819	0.084966	0.309261
	H22	H	-0.026183	0.081172	0.292060
	C23	C	0.022112	0.087685	0.315830
	H24	H	-0.012784	0.084505	0.313860
	C25	C	0.037338	0.088243	0.309703
	C26	C	0.029940	0.086328	0.297452
	H27	H	0.055126	0.090270	0.314613
	H28	H	0.041817	0.086976	0.292844
	C29	C	-0.060526	0.085851	0.198011
	C30	C	-0.065490	0.087937	0.185960
	H31	H	-0.074183	0.085221	0.201441
	C32	C	-0.048185	0.088593	0.181185
	H33	H	-0.083010	0.089090	0.180142
	C34	C	-0.025673	0.086935	0.188913
	C35	C	-0.020520	0.084959	0.200996
	H36	H	-0.012106	0.087373	0.185365
	H37	H	-0.002989	0.083942	0.206760
	C38	C	0.029903	0.090263	0.328664
	N39	N	0.016762	0.089029	0.334671
	H40	H	0.047492	0.093500	0.333035
	C41	C	-0.053481	0.091312	0.168569
	N42	N	-0.038341	0.090786	0.163698
	H43	H	-0.070987	0.093976	0.163355
	N44	N	0.039509	0.108020	0.401089
	C45	C	0.034513	0.100605	0.409715
	C46	C	0.048461	0.120700	0.403968
	C47	C	0.033762	0.103194	0.389233
	C48	C	0.064686	0.123731	0.415190
	C49	C	0.038411	0.087323	0.410453
	C50	C	0.047655	0.105774	0.382616
	C51	C	0.041309	0.130561	0.395617
	C52	C	0.073594	0.136065	0.417869
	H53	H	0.070457	0.116263	0.421738
	C54	C	0.025288	0.106305	0.417622
	C55	C	0.033273	0.080056	0.418758
	H56	H	0.045638	0.082789	0.404476
	C57	C	0.013845	0.095960	0.383728
	C58	C	0.041578	0.101560	0.370898
	H59	H	0.063260	0.111155	0.386764
	C60	C	0.050130	0.142886	0.398356
	H61	H	0.028608	0.128480	0.386963
	C62	C	0.066559	0.145931	0.409522
	H63	H	0.086109	0.138233	0.426568
	C64	C	0.019990	0.098982	0.425845
	H65	H	0.022068	0.116522	0.417136
	C66	C	0.023779	0.085681	0.426585
	H67	H	0.036257	0.069805	0.419147
	C68	C	0.007796	0.091792	0.371991
	H69	H	0.002941	0.093847	0.388689
	C70	C	0.021380	0.094611	0.365255
	H71	H	0.052342	0.103822	0.365884
	H72	H	0.044450	0.150287	0.391725
	H73	H	0.012654	0.103560	0.431762
	H74	H	-0.007853	0.086433	0.367868
	C75	C	0.075853	0.158918	0.412178
	N76	N	0.091964	0.162055	0.421952
	H77	H	0.068686	0.166131	0.405337
	C78	C	0.017842	0.077984	0.435123
	N79	N	0.024062	0.066227	0.437215
	H80	H	0.007959	0.082640	0.439883
	C81	C	0.014406	0.090771	0.352737
	N82	N	0.027078	0.092676	0.346554
	H83	H	-0.002366	0.086310	0.348643
	N84	N	0.951946	0.110251	0.099471
	C85	C	0.958324	0.102757	0.091189
	C86	C	0.943617	0.122968	0.096612
	C87	C	0.955473	0.105409	0.111012
	C88	C	0.929004	0.126055	0.085100
	C89	C	0.954035	0.089495	0.089955
	C90	C	0.939879	0.107990	0.116682
	C91	C	0.949775	0.132810	0.105279
	C92	C	0.920687	0.138430	0.082430
	H93	H	0.923999	0.118599	0.078307
	C94	C	0.969294	0.108359	0.084119
	C95	C	0.960421	0.082159	0.081956
	H96	H	0.945495	0.085030	0.095288
	C97	C	0.974820	0.098150	0.117151
	C98	C	0.943748	0.103723	0.128112
	H99	H	0.924699	0.113404	0.112022
	C100	C	0.941573	0.145179	0.102551
	H101	H	0.961219	0.130677	0.114176
	C102	C	0.926753	0.148283	0.091082
	H103	H	0.909421	0.140640	0.073503
	C104	C	0.975830	0.100966	0.076206
	H105	H	0.972855	0.118556	0.085008
	C106	C	0.971608	0.087689	0.074955
	H107	H	0.957081	0.071926	0.081170
	C108	C	0.978677	0.093949	0.128608
	H109	H	0.987000	0.096039	0.112913
	C110	C	0.963358	0.096743	0.134408
	H111	H	0.931686	0.105977	0.132404
	H112	H	0.946454	0.152568	0.109418
	H113	H	0.984475	0.105471	0.070936
	H114	H	0.993917	0.088564	0.133248
	C115	C	0.918072	0.161316	0.088421
	N116	N	0.903155	0.164469	0.078348
	H117	H	0.924599	0.168541	0.095515
	C118	C	0.978742	0.079925	0.066714
	N119	N	0.972251	0.068210	0.064089
	H120	H	0.989746	0.084501	0.062636
	C121	C	0.967978	0.092839	0.146660
	N122	N	0.953458	0.094434	0.151848
	H123	H	0.984558	0.088563	0.151434
	C124	C	-0.006471	-0.015026	0.520857
	C125	C	-0.007880	-0.007018	0.510411
	C126	C	0.009076	0.000075	0.508403
	H127	H	0.026344	0.000516	0.514716
	C128	C	0.002251	0.006504	0.497668
	C129	C	0.016006	0.014666	0.492587
	C130	C	-0.020057	0.006047	0.489599
	C131	C	-0.021516	0.014145	0.479186
	C132	C	-0.036951	-0.001132	0.491569
	H133	H	-0.054200	-0.001616	0.485238
	C134	C	-0.030030	-0.007715	0.502230
	C135	C	-0.043428	-0.016494	0.506992
	N136	N	0.000728	0.018923	0.481502
	N137	N	-0.028288	-0.020635	0.518191
	O138	O	-0.037994	0.016268	0.470505
	O139	O	0.035976	0.017214	0.496862
	O140	O	-0.063075	-0.019595	0.502284
	O141	O	0.009789	-0.016419	0.529824
	C142	C	0.007065	0.026767	0.473479
	C143	C	-0.034041	-0.029695	0.525606
	C144	C	-0.006612	0.037068	0.467884
	C145	C	-0.000429	0.044580	0.460053
	H146	H	-0.021959	0.039112	0.469645
	C147	C	0.019279	0.041941	0.457539
	H148	H	-0.011066	0.052534	0.455670
	C149	C	0.032796	0.031557	0.463251
	C150	C	0.026922	0.024083	0.471211
	H151	H	0.048114	0.029400	0.461464
	H152	H	0.037418	0.016091	0.475538
	C153	C	-0.056398	-0.030706	0.525336
	C154	C	-0.061935	-0.039690	0.532326
	H155	H	-0.069416	-0.024415	0.519814
	C156	C	-0.045371	-0.047783	0.539858
	H157	H	-0.079295	-0.040405	0.532032
	C158	C	-0.023001	-0.046568	0.540124
	C159	C	-0.017364	-0.037739	0.533054
	H160	H	-0.009988	-0.052751	0.545885
	H161	H	-0.000045	-0.037221	0.533331
	C162	C	0.025520	0.049700	0.449095
	N163	N	0.016132	0.060548	0.445399
	H164	H	0.038885	0.045999	0.446112
	C165	C	-0.051284	-0.057354	0.547105
	N166	N	-0.035981	-0.063247	0.555507
	H167	H	-0.069338	-0.059263	0.545184
	C168	C	0.147766	0.238020	0.429006
	C169	C	0.157382	0.250588	0.434685
	C170	C	0.158946	0.262086	0.429314
	H171	H	0.153029	0.263099	0.419759
	C172	C	0.168491	0.272212	0.437121
	C173	C	0.172103	0.285804	0.434391
	C174	C	0.176158	0.270915	0.449428
	C175	C	0.185132	0.283655	0.455030
	C176	C	0.174605	0.259397	0.454789
	H177	H	0.180391	0.258403	0.464344
	C178	C	0.164862	0.249283	0.446981
	C179	C	0.160055	0.235822	0.449614
	N180	N	0.181846	0.292199	0.445509
	N181	N	0.149519	0.229613	0.438436
	O182	O	0.193361	0.286329	0.465460
	O183	O	0.167720	0.290540	0.424762
	O184	O	0.164034	0.231094	0.459213
	O185	O	0.140105	0.235406	0.418546
	C186	C	0.186506	0.305725	0.446885
	C187	C	0.140964	0.216671	0.436808
	C188	C	0.206004	0.310424	0.455859
	C189	C	0.210145	0.323579	0.457137
	H190	H	0.217777	0.303823	0.461786
	C191	C	0.194989	0.332311	0.449582
	H192	H	0.225203	0.327232	0.464116
	C193	C	0.175512	0.327406	0.440625
	C194	C	0.171279	0.314289	0.439235
	H195	H	0.163592	0.333973	0.434692
	H196	H	0.156078	0.310702	0.432363
	C197	C	0.152069	0.207129	0.444841
	C198	C	0.143608	0.194632	0.443153
	H199	H	0.167415	0.209425	0.452257
	C200	C	0.123970	0.191338	0.433460
	H201	H	0.152362	0.187288	0.449379
	C202	C	0.113002	0.201044	0.425527
	C203	C	0.121258	0.213561	0.427161
	H204	H	0.097809	0.198682	0.417994
	H205	H	0.112380	0.220854	0.420949
	C206	C	0.198929	0.346188	0.450919
	N207	N	0.217217	0.351261	0.458318
	H208	H	0.185439	0.352326	0.445208
	C209	C	0.115132	0.178152	0.431593
	N210	N	0.097978	0.174945	0.422354
	H211	H	0.123794	0.171059	0.438279
	C212	C	0.010840	-0.013202	-0.018967
	C213	C	0.011354	-0.005204	-0.008473
	C214	C	-0.005909	0.002019	-0.006841
	H215	H	-0.022756	0.002596	-0.013551
	C216	C	0.000024	0.008389	0.004064
	C217	C	-0.014305	0.016649	0.008831
	C218	C	0.021799	0.007753	0.012654
	C219	C	0.022346	0.015826	0.023127
	C220	C	0.038993	0.000446	0.011053
	H221	H	0.055814	-0.000177	0.017780
	C222	C	0.032950	-0.006075	0.000210
	C223	C	0.046842	-0.014956	-0.004282
	N224	N	0.000108	0.020771	0.020291
	N225	N	0.032555	-0.018987	-0.015831
	O226	O	0.038195	0.017812	0.032209
	O227	O	-0.034064	0.019363	0.004078
	O228	O	0.066210	-0.018205	0.000845
	O229	O	-0.004735	-0.014467	-0.028292
	C230	C	-0.007052	0.028639	0.028163
	C231	C	0.038918	-0.028119	-0.023156
	C232	C	0.006619	0.038820	0.034434
	C233	C	-0.000408	0.046366	0.042093
	H234	H	0.022606	0.040750	0.033321
	C235	C	-0.020979	0.043879	0.043761
	H236	H	0.010209	0.054232	0.046995
	C237	C	-0.034463	0.033606	0.037387
	C238	C	-0.027733	0.026100	0.029595
	H239	H	-0.050432	0.031564	0.038519
	H240	H	-0.038221	0.018197	0.024752
	C241	C	0.061638	-0.029304	-0.022234
	C242	C	0.067729	-0.038359	-0.029150
	H243	H	0.074518	-0.023093	-0.016257
	C244	C	0.051388	-0.046354	-0.037246
	H245	H	0.085364	-0.039210	-0.028350
	C246	C	0.028662	-0.044966	-0.038158
	C247	C	0.022453	-0.036062	-0.031173
	H248	H	0.015812	-0.051069	-0.044361
	H249	H	0.004851	-0.035406	-0.031960
	C250	C	-0.028185	0.051685	0.051994
	N251	N	-0.018664	0.062460	0.056282
	H252	H	-0.042426	0.048097	0.054273
	C253	C	0.057865	-0.056003	-0.044419
	N254	N	0.042970	-0.061855	-0.053227
	H255	H	0.075983	-0.058011	-0.042075
	C256	C	0.849783	0.240862	0.070773
	C257	C	0.840713	0.253331	0.065059
	C258	C	0.839020	0.265002	0.070388
	H259	H	0.844413	0.266263	0.079934
	C260	C	0.830067	0.274956	0.062558
	C261	C	0.826501	0.288655	0.065250
	C262	C	0.823060	0.273336	0.050262
	C263	C	0.814552	0.285957	0.044627
	C264	C	0.824758	0.261648	0.044942
	H265	H	0.819494	0.260404	0.035400
	C266	C	0.833921	0.251708	0.052778
	C267	C	0.838685	0.238140	0.050198
	N268	N	0.817426	0.294766	0.054124
	N269	N	0.848445	0.232182	0.061389
	O270	O	0.806912	0.288364	0.034194
	O271	O	0.830436	0.293662	0.074856
	O272	O	0.835221	0.233164	0.040623
	O273	O	0.856784	0.238511	0.081226
	C274	C	0.812991	0.308272	0.052730
	C275	C	0.856611	0.219207	0.063078
	C276	C	0.793803	0.312776	0.043599
	C277	C	0.789849	0.325910	0.042315
	H278	H	0.782136	0.306043	0.037554
	C279	C	0.804881	0.334809	0.050023
	H280	H	0.775040	0.329412	0.035210
	C281	C	0.824027	0.330096	0.059148
	C282	C	0.828065	0.317003	0.060548
	H283	H	0.835836	0.336795	0.065206
	H284	H	0.843005	0.313557	0.067556
	C285	C	0.845738	0.209547	0.054834
	C286	C	0.853808	0.197020	0.056574
	H287	H	0.830856	0.211776	0.047205
	C288	C	0.872804	0.193803	0.066535
	H289	H	0.845229	0.189590	0.050179
	C290	C	0.883547	0.203619	0.074684
	C291	C	0.875694	0.216171	0.072996
	H292	H	0.898250	0.201318	0.082425
	H293	H	0.884409	0.223547	0.079378
	C294	C	0.801137	0.348661	0.048671
	N295	N	0.783056	0.353567	0.041141
	H296	H	0.814575	0.354926	0.054486
	C297	C	0.881194	0.180583	0.068449
	N298	N	0.897487	0.177403	0.077979
	H299	H	0.872914	0.173431	0.061534
	N300	N	0.952334	0.882929	0.597851
	C301	C	0.959503	0.884052	0.610461
	C302	C	0.942504	0.871220	0.592011
	C303	C	0.956321	0.893297	0.591236
	C304	C	0.929022	0.863568	0.596439
	C305	C	0.955132	0.895250	0.615884
	C306	C	0.940261	0.896611	0.580150
	C307	C	0.946060	0.866920	0.581697
	C308	C	0.919504	0.852141	0.590783
	H309	H	0.925890	0.866722	0.604319
	C310	C	0.971207	0.874047	0.617816
	C311	C	0.961827	0.896285	0.628172
	H312	H	0.946191	0.903052	0.610326
	C313	C	0.976648	0.900412	0.595585
	C314	C	0.944583	0.906475	0.573590
	H315	H	0.924340	0.891372	0.576755
	C316	C	0.936554	0.855474	0.576084
	H317	H	0.956594	0.872569	0.578186
	C318	C	0.923042	0.847807	0.580481
	H319	H	0.909238	0.846353	0.594371
	C320	C	0.978144	0.875192	0.630106
	H321	H	0.974879	0.865408	0.613754
	C322	C	0.973565	0.886317	0.635575
	H323	H	0.958302	0.904987	0.632219
	C324	C	0.980976	0.910198	0.588957
	H325	H	0.989152	0.898037	0.604148
	C326	C	0.965144	0.913393	0.577760
	H327	H	0.932124	0.908798	0.564986
	H328	H	0.939483	0.852402	0.568120
	H329	H	0.987252	0.867388	0.635612
	H330	H	0.996933	0.915409	0.592406
	C331	C	0.913176	0.835758	0.574538
	N332	N	0.900723	0.828499	0.578318
	H333	H	0.916799	0.832989	0.566595
	C334	C	0.980694	0.887408	0.648504
	N335	N	0.972626	0.895999	0.653674
	H336	H	0.992831	0.880327	0.653770
	C337	C	0.970198	0.923387	0.570663
	N338	N	0.955198	0.927701	0.561101
	H339	H	0.987557	0.927218	0.573796
	N340	N	0.243313	0.424777	0.468346
	C341	C	0.263017	0.431449	0.468246
	C342	C	0.224523	0.431770	0.469280
	C343	C	0.241763	0.411136	0.467404
	C344	C	0.216486	0.442882	0.462646
	C345	C	0.276501	0.426594	0.462042
	C346	C	0.221033	0.405173	0.460740
	C347	C	0.213415	0.427620	0.476859
	C348	C	0.198027	0.449545	0.463550
	H349	H	0.224725	0.446137	0.456680
	C350	C	0.269506	0.443227	0.474352
	C351	C	0.295587	0.433237	0.461957
	H352	H	0.271730	0.417634	0.457129
	C353	C	0.260470	0.403253	0.473159
	C354	C	0.219136	0.391909	0.459842
	H355	H	0.206416	0.411060	0.456198
	C356	C	0.195164	0.434399	0.477850
	H357	H	0.219414	0.419056	0.482013
	C358	C	0.186989	0.445499	0.471199
	H359	H	0.192060	0.458119	0.458391
	C360	C	0.288462	0.449890	0.474155
	H361	H	0.259571	0.447106	0.479320
	C362	C	0.302030	0.445038	0.468000
	H363	H	0.305814	0.429313	0.457155
	C364	C	0.258485	0.389961	0.472249
	H365	H	0.276502	0.407679	0.478462
	C366	C	0.237755	0.383971	0.465605
	H367	H	0.202937	0.387522	0.454708
	H368	H	0.186821	0.430990	0.483723
	H369	H	0.293117	0.458918	0.478979
	H370	H	0.273075	0.384068	0.476843
	C371	C	0.167691	0.452504	0.472276
	N372	N	0.157698	0.461632	0.465252
	H373	H	0.161551	0.449553	0.479295
	C374	C	0.321926	0.452164	0.467875
	N375	N	0.335687	0.447747	0.463012
	H376	H	0.324974	0.461626	0.472219
	C377	C	0.235379	0.369999	0.464690
	N378	N	0.216729	0.364601	0.458047
	H379	H	0.250023	0.364239	0.469817
	N380	N	0.057360	0.884005	0.904199
	C381	C	0.051084	0.885068	0.891652
	C382	C	0.066545	0.872285	0.909882
	C383	C	0.052977	0.894422	0.910855
	C384	C	0.080345	0.864539	0.905622
	C385	C	0.056220	0.896206	0.886659
	C386	C	0.068387	0.897748	0.922212
	C387	C	0.062006	0.868061	0.919854
	C388	C	0.089213	0.853091	0.911108
	H389	H	0.084235	0.867633	0.898010
	C390	C	0.039499	0.875069	0.883933
	C391	C	0.050359	0.897193	0.874435
	H392	H	0.065082	0.904002	0.892501
	C393	C	0.032881	0.901582	0.906262
	C394	C	0.063652	0.907669	0.928786
	H395	H	0.084135	0.892474	0.925807
	C396	C	0.070868	0.856595	0.925299
	H397	H	0.051209	0.873782	0.923226
	C398	C	0.084684	0.848830	0.921065
	H399	H	0.099735	0.847229	0.907651
	C400	C	0.033398	0.876166	0.871706
	H401	H	0.035248	0.866474	0.887659
	C402	C	0.038729	0.887235	0.866668
	H403	H	0.054460	0.905850	0.870721
	C404	C	0.028136	0.911427	0.912898
	H405	H	0.020876	0.899199	0.897493
	C406	C	0.043305	0.914637	0.924355
	H407	H	0.075601	0.910002	0.937594
	H408	H	0.067179	0.853581	0.933000
	H409	H	0.024360	0.868370	0.865912
	H410	H	0.012357	0.916673	0.909247
	C411	C	0.093850	0.836753	0.926817
	N412	N	0.106475	0.829384	0.923143
	H413	H	0.089521	0.834059	0.934509
	C414	C	0.032440	0.888279	0.853804
	N415	N	0.041184	0.896800	0.849055
	H416	H	0.020319	0.881224	0.848213
	C417	C	0.037776	0.924701	0.931433
	N418	N	0.052235	0.929010	0.941305
	H419	H	0.020528	0.928591	0.928004
	N420	N	0.757550	0.426825	0.030899
	C421	C	0.737854	0.433539	0.030974
	C422	C	0.776362	0.433743	0.029951
	C423	C	0.759038	0.413213	0.031864
	C424	C	0.784379	0.445092	0.036531
	C425	C	0.724358	0.428924	0.037187
	C426	C	0.779712	0.407419	0.038573
	C427	C	0.787506	0.429287	0.022411
	C428	C	0.802840	0.451693	0.035604
	H429	H	0.776118	0.448586	0.042470
	C430	C	0.731380	0.445111	0.024832
	C431	C	0.705273	0.435599	0.037247
	H432	H	0.729119	0.420130	0.042126
	C433	C	0.740302	0.405189	0.026090
	C434	C	0.781523	0.394180	0.039502
	H435	H	0.794349	0.413421	0.043124
	C436	C	0.805761	0.436001	0.021396
	H437	H	0.781528	0.420539	0.017301
	C438	C	0.813906	0.447343	0.027988
	H439	H	0.808785	0.460454	0.040718
	C440	C	0.712424	0.451810	0.025004
	H441	H	0.741323	0.448798	0.019855
	C442	C	0.698844	0.447197	0.031168
	H443	H	0.695035	0.431859	0.042055
	C444	C	0.742204	0.391923	0.027028
	H445	H	0.724313	0.409479	0.020754
	C446	C	0.762874	0.386101	0.033724
	H447	H	0.797678	0.389920	0.044673
	H448	H	0.814128	0.432357	0.015552
	H449	H	0.707778	0.460676	0.020153
	H450	H	0.727591	0.385916	0.022421
	C451	C	0.833192	0.454286	0.026879
	N452	N	0.843153	0.463668	0.033855
	H453	H	0.839345	0.451069	0.019877
	C454	C	0.678946	0.454354	0.031266
	N455	N	0.665186	0.450125	0.036143
	H456	H	0.675895	0.463666	0.026892
	C457	C	0.765140	0.372154	0.034671
	N458	N	0.783671	0.366913	0.041409
	H459	H	0.750500	0.366269	0.029488
	C460	C	0.013270	0.896186	0.729853
	C461	C	0.013376	0.899333	0.742023
	C462	C	0.028076	0.895134	0.752981
	H463	H	0.042187	0.888798	0.753841
	C464	C	0.023266	0.899632	0.762742
	C465	C	0.035493	0.897130	0.775668
	C466	C	0.004823	0.907599	0.761611
	C467	C	0.004138	0.910144	0.773745
	C468	C	-0.009624	0.911966	0.750670
	H469	H	-0.023765	0.918281	0.749801
	C470	C	-0.004603	0.907607	0.740920
	C471	C	-0.016323	0.910446	0.728035
	N472	N	0.023019	0.903618	0.781735
	N473	N	-0.004953	0.903188	0.721804
	O474	O	-0.009457	0.916410	0.776405
	O475	O	0.052463	0.890925	0.780203
	O476	O	-0.032140	0.917556	0.723737
	O477	O	0.025913	0.889025	0.727314
	C478	C	0.028558	0.903347	0.794352
	C479	C	-0.011227	0.902832	0.709063
	C480	C	0.011721	0.900497	0.799008
	C481	C	0.017285	0.900023	0.811259
	H482	H	-0.005496	0.898668	0.793051
	C483	C	0.039524	0.902550	0.819090
	H484	H	0.004290	0.897796	0.814903
	C485	C	0.056138	0.905518	0.814234
	C486	C	0.050847	0.905801	0.801994
	H487	H	0.073403	0.907444	0.820141
	H488	H	0.063738	0.908008	0.798305
	C489	C	-0.033588	0.905430	0.701665
	C490	C	-0.039591	0.905082	0.689368
	H491	H	-0.046472	0.907498	0.705415
	C492	C	-0.023649	0.901943	0.684088
	H493	H	-0.056964	0.907065	0.683742
	C494	C	-0.001333	0.899324	0.691591
	C495	C	0.004922	0.899879	0.703899
	H496	H	0.011213	0.896924	0.687654
	H497	H	0.022365	0.898016	0.709383
	C498	C	0.045330	0.902065	0.831996
	N499	N	0.032777	0.896149	0.836690
	H500	H	0.061300	0.906585	0.837601
	C501	C	-0.030208	0.901394	0.671125
	N502	N	-0.018282	0.895384	0.666018
	H503	H	-0.046204	0.905962	0.665838
	C504	C	0.837391	0.760421	0.539264
	C505	C	0.830866	0.746556	0.537293
	C506	C	0.823080	0.739513	0.526715
	H507	H	0.820632	0.743741	0.518189
	C508	C	0.818817	0.726620	0.527903
	C509	C	0.810821	0.716364	0.518520
	C510	C	0.821987	0.721168	0.538879
	C511	C	0.816155	0.707203	0.536917
	C512	C	0.829694	0.728229	0.549454
	H513	H	0.832253	0.723985	0.557986
	C514	C	0.834058	0.741113	0.548275
	C515	C	0.842821	0.751301	0.557687
	N516	N	0.809834	0.704914	0.524526
	N517	N	0.844649	0.762625	0.551701
	O518	O	0.816774	0.699346	0.544267
	O519	O	0.806060	0.717442	0.507961
	O520	O	0.847588	0.750251	0.568248
	O521	O	0.836664	0.768265	0.531885
	C522	C	0.804224	0.692518	0.518866
	C523	C	0.853515	0.774625	0.557511
	C524	C	0.791934	0.683626	0.522801
	C525	C	0.786895	0.671580	0.517357
	H526	H	0.786406	0.686101	0.530083
	C527	C	0.793898	0.668119	0.507895
	H528	H	0.777499	0.664672	0.520465
	C529	C	0.806083	0.677196	0.504013
	C530	C	0.811199	0.689255	0.509388
	H531	H	0.811660	0.674730	0.496724
	H532	H	0.820889	0.696028	0.506373
	C533	C	0.849081	0.778596	0.567613
	C534	C	0.857925	0.790169	0.573257
	H535	H	0.838564	0.772733	0.570937
	C536	C	0.871383	0.798031	0.569017
	H537	H	0.854394	0.793183	0.581065
	C538	C	0.875636	0.793900	0.558869
	C539	C	0.866888	0.782347	0.553166
	H540	H	0.885950	0.799866	0.555460
	H541	H	0.870496	0.779341	0.545401
	C542	C	0.788966	0.655398	0.502217
	N543	N	0.777821	0.646749	0.505406
	H544	H	0.795344	0.653384	0.495025
	C545	C	0.880807	0.810171	0.575055
	N546	N	0.893264	0.817479	0.571359
	H547	H	0.876935	0.812839	0.582942
	C548	C	0.444089	0.494070	0.456836
	C549	C	0.468089	0.498042	0.459001
	C550	C	0.476370	0.509774	0.456919
	H551	H	0.465347	0.517788	0.453135
	C552	C	0.499854	0.510469	0.460086
	C553	C	0.514283	0.521488	0.459126
	C554	C	0.514046	0.500174	0.465011
	C555	C	0.538100	0.504290	0.467544
	C556	C	0.505752	0.488409	0.467013
	H557	H	0.516784	0.480408	0.470828
	C558	C	0.482266	0.487696	0.463812
	C559	C	0.467829	0.476681	0.464795
	N560	N	0.537097	0.517195	0.463829
	N561	N	0.445138	0.481178	0.460551
	O562	O	0.555070	0.498044	0.471940
	O563	O	0.508031	0.531932	0.455126
	O564	O	0.473910	0.466098	0.468458
	O565	O	0.427107	0.500382	0.452751
	C566	C	0.556643	0.524955	0.464907
	C567	C	0.425800	0.473752	0.460360
	C568	C	0.576025	0.519369	0.463812
	C569	C	0.595003	0.526894	0.465042
	H570	H	0.576346	0.509205	0.462020
	C571	C	0.595129	0.540141	0.467275
	H572	H	0.610034	0.522505	0.464271
	C573	C	0.575469	0.545623	0.468222
	C574	C	0.556458	0.538165	0.467085
	H575	H	0.575197	0.555827	0.469966
	H576	H	0.541694	0.542571	0.468089
	C577	C	0.424093	0.460762	0.457092
	C578	C	0.405292	0.453633	0.456928
	H579	H	0.437288	0.456351	0.454577
	C580	C	0.387913	0.459221	0.460088
	H581	H	0.404043	0.443586	0.454367
	C582	C	0.389964	0.472258	0.463372
	C583	C	0.408617	0.479488	0.463500
	H584	H	0.376650	0.476731	0.465787
	H585	H	0.409867	0.489518	0.466037
	C586	C	0.615219	0.548038	0.468670
	N587	N	0.634132	0.543090	0.468997
	H588	H	0.613718	0.558410	0.469637
	C589	C	0.368176	0.451663	0.459968
	N590	N	0.353226	0.456287	0.463887
	H591	H	0.366673	0.441818	0.456519
	C592	C	-0.042023	0.519138	0.463134
	C593	C	-0.017999	0.515532	0.464976
	C594	C	-0.009598	0.508201	0.457734
	H595	H	-0.020497	0.504167	0.449298
	C596	C	0.013805	0.506368	0.462155
	C597	C	0.028345	0.499025	0.456817
	C598	C	0.027788	0.511429	0.473096
	C599	C	0.051691	0.507331	0.475261
	C600	C	0.019432	0.518880	0.480268
	H601	H	0.030315	0.522879	0.488723
	C602	C	-0.003950	0.520771	0.475803
	C603	C	-0.018372	0.528153	0.481151
	N604	N	0.050812	0.499874	0.465194
	N605	N	-0.041114	0.526673	0.473193
	O606	O	0.068494	0.509768	0.483751
	O607	O	0.022523	0.493439	0.447379
	O608	O	-0.012118	0.534237	0.490335
	O609	O	-0.058901	0.516194	0.454879
	C610	C	0.070082	0.493599	0.463871
	C611	C	-0.060603	0.531960	0.475183
	C612	C	0.085692	0.487294	0.473524
	C613	C	0.104242	0.481104	0.472206
	H614	H	0.083281	0.487242	0.481971
	C615	C	0.107769	0.481118	0.461333
	H616	H	0.116349	0.476233	0.479695
	C617	C	0.091964	0.487542	0.451754
	C618	C	0.073215	0.493660	0.452943
	H619	H	0.094359	0.487636	0.443284
	H620	H	0.061153	0.498586	0.445516
	C621	C	-0.060372	0.533618	0.486780
	C622	C	-0.079125	0.538812	0.488723
	H623	H	-0.045771	0.530702	0.494270
	C624	C	-0.098650	0.542376	0.479209
	H625	H	-0.078757	0.540043	0.497736
	C626	C	-0.098689	0.540591	0.467635
	C627	C	-0.079909	0.535526	0.465604
	H628	H	-0.113639	0.543299	0.460191
	H629	H	-0.080322	0.534401	0.456598
	C630	C	0.127387	0.474562	0.460029
	N631	N	0.139868	0.466956	0.468005
	H632	H	0.130834	0.476153	0.451871
	C633	C	-0.118240	0.547850	0.481427
	N634	N	-0.137579	0.549571	0.473101
	H635	H	-0.115963	0.550330	0.490643
	C636	C	0.165804	0.761186	0.961167
	C637	C	0.171927	0.747309	0.962923
	C638	C	0.179074	0.740338	0.973362
	H639	H	0.181223	0.744644	0.981927
	C640	C	0.183124	0.727414	0.971982
	C641	C	0.190506	0.717225	0.981181
	C642	C	0.180344	0.721861	0.960957
	C643	C	0.185816	0.707892	0.962703
	C644	C	0.173273	0.728850	0.950522
	H645	H	0.171022	0.724531	0.941950
	C646	C	0.169130	0.741768	0.951891
	C647	C	0.161048	0.751907	0.942661
	N648	N	0.191551	0.705709	0.975019
	N649	N	0.159207	0.763304	0.948799
	O650	O	0.185365	0.699958	0.955257
	O651	O	0.194804	0.718396	0.991726
	O652	O	0.156753	0.750775	0.932115
	O653	O	0.166355	0.769101	0.968647
	C654	C	0.196802	0.693367	0.980479
	C655	C	0.150981	0.775310	0.943182
	C656	C	0.209254	0.684422	0.976569
	C657	C	0.214012	0.672446	0.981843
	H658	H	0.215142	0.686806	0.969443
	C659	C	0.206563	0.669107	0.991109
	H660	H	0.223552	0.665500	0.978761
	C661	C	0.194192	0.678230	0.994960
	C662	C	0.189350	0.690219	0.989751
	H663	H	0.188265	0.675858	1.002096
	H664	H	0.179522	0.697029	0.992739
	C665	C	0.156195	0.779155	0.933359
	C666	C	0.148006	0.790748	0.927911
	H667	H	0.166812	0.773180	0.930103
	C668	C	0.134439	0.798754	0.932075
	H669	H	0.152144	0.793666	0.920321
	C670	C	0.129382	0.794742	0.941936
	C671	C	0.137474	0.783171	0.947441
	H672	H	0.118969	0.800818	0.945281
	H673	H	0.133262	0.780261	0.954988
	C674	C	0.211268	0.656477	0.996638
	N675	N	0.222554	0.647785	0.993470
	H676	H	0.204616	0.654577	1.003709
	C677	C	0.125730	0.810922	0.926250
	N678	N	0.113168	0.818356	0.929869
	H679	H	0.130240	0.813500	0.918592
	C680	C	0.556651	0.496741	0.042139
	C681	C	0.532631	0.500632	0.039954
	C682	C	0.524286	0.512439	0.041973
	H683	H	0.535267	0.520593	0.045711
	C684	C	0.500799	0.513016	0.038804
	C685	C	0.486307	0.524068	0.039706
	C686	C	0.486664	0.502539	0.033936
	C687	C	0.462588	0.506557	0.031383
	C688	C	0.495021	0.490700	0.032000
	H689	H	0.484032	0.482558	0.028231
	C690	C	0.518510	0.490107	0.035204
	C691	C	0.533006	0.479056	0.034285
	N692	N	0.463518	0.519597	0.035029
	N693	N	0.555672	0.483709	0.038503
	O694	O	0.445653	0.500148	0.027017
	O695	O	0.492498	0.534660	0.043643
	O696	O	0.526981	0.468337	0.030685
	O697	O	0.573600	0.503204	0.046186
	C698	C	0.443932	0.527310	0.033927
	C699	C	0.575051	0.476290	0.038743
	C700	C	0.424575	0.521751	0.035034
	C701	C	0.405542	0.529218	0.033756
	H702	H	0.424322	0.511653	0.036881
	C703	C	0.405325	0.542381	0.031451
	H704	H	0.390536	0.524847	0.034544
	C705	C	0.424948	0.547839	0.030475
	C706	C	0.444014	0.540435	0.031659
	H707	H	0.425145	0.557976	0.028668
	H708	H	0.458747	0.544811	0.030629
	C709	C	0.576810	0.463420	0.042073
	C710	C	0.595626	0.456287	0.042256
	H711	H	0.563651	0.459110	0.044627
	C712	C	0.612957	0.461746	0.039044
	H713	H	0.596922	0.446336	0.044872
	C714	C	0.610839	0.474659	0.035683
	C715	C	0.592172	0.481893	0.035535
	H716	H	0.624110	0.479030	0.033219
	H717	H	0.590865	0.491826	0.032935
	C718	C	0.385178	0.550213	0.030012
	N719	N	0.366285	0.545236	0.029682
	H720	H	0.386619	0.560553	0.029012
	C721	C	0.632706	0.454180	0.039185
	N722	N	0.647635	0.458650	0.035238
	H723	H	0.634241	0.444460	0.042678
	C724	C	0.042546	0.521232	0.035613
	C725	C	0.018543	0.517570	0.033807
	C726	C	0.010200	0.510478	0.041078
	H727	H	0.021139	0.506718	0.049514
	C728	C	-0.013198	0.508504	0.036686
	C729	C	-0.027683	0.501339	0.042060
	C730	C	-0.027231	0.513208	0.025745
	C731	C	-0.051113	0.509038	0.023614
	C732	C	-0.018933	0.520424	0.018545
	H733	H	-0.029856	0.524149	0.010090
	C734	C	0.004444	0.522459	0.022981
	C735	C	0.018810	0.529668	0.017600
	N736	N	-0.050170	0.501912	0.033701
	N737	N	0.041574	0.528444	0.025538
	O738	O	-0.067946	0.511196	0.015132
	O739	O	-0.021810	0.496059	0.051507
	O740	O	0.012502	0.535457	0.008409
	O741	O	0.059456	0.518547	0.043855
	C742	C	-0.069399	0.495680	0.035060
	C743	C	0.061022	0.533672	0.023516
	C744	C	-0.085009	0.489049	0.025434
	C745	C	-0.103518	0.482901	0.026788
	H746	H	-0.082632	0.488714	0.016978
	C747	C	-0.107003	0.483283	0.037671
	H748	H	-0.115625	0.477777	0.019320
	C749	C	-0.091199	0.490031	0.047223
	C750	C	-0.072489	0.496109	0.045999
	H751	H	-0.093563	0.490411	0.055700
	H752	H	-0.060425	0.501285	0.053406
	C753	C	0.060724	0.534977	0.011908
	C754	C	0.079436	0.540117	0.009934
	H755	H	0.046105	0.531831	0.004431
	C756	C	0.098986	0.543974	0.019428
	H757	H	0.079015	0.541075	0.000913
	C758	C	0.099094	0.542540	0.031014
	C759	C	0.080355	0.537532	0.033076
	H760	H	0.114063	0.545477	0.038444
	H761	H	0.080822	0.536682	0.042090
	C762	C	-0.126584	0.476774	0.039012
	N763	N	-0.139039	0.468883	0.031074
	H764	H	-0.130028	0.478659	0.047165
	C765	C	0.118530	0.549386	0.017178
	N766	N	0.137892	0.551361	0.025483
	H767	H	0.116194	0.551590	0.007956
	N768	N	0.751656	0.576609	0.480047
	C769	C	0.731392	0.569308	0.477902
	C770	C	0.770112	0.571237	0.477335
	C771	C	0.754321	0.589077	0.485411
	C772	C	0.766473	0.564525	0.466612
	C773	C	0.710108	0.575263	0.475054
	C774	C	0.766351	0.598672	0.482009
	C775	C	0.792558	0.572574	0.485361
	C776	C	0.784600	0.559404	0.464021
	H777	H	0.749268	0.563506	0.460306
	C778	C	0.732108	0.555854	0.478606
	C779	C	0.690493	0.568082	0.473147
	H780	H	0.709027	0.585592	0.474253
	C781	C	0.745507	0.592133	0.494323
	C782	C	0.769459	0.610772	0.487308
	H783	H	0.773219	0.596553	0.475128
	C784	C	0.810585	0.567323	0.482795
	H785	H	0.795688	0.577690	0.493682
	C786	C	0.807073	0.560642	0.472066
	H787	H	0.781405	0.554229	0.455718
	C788	C	0.712438	0.548704	0.476583
	H789	H	0.748321	0.551039	0.480896
	C790	C	0.691178	0.554642	0.473902
	H791	H	0.674269	0.572864	0.471067
	C792	C	0.748608	0.604277	0.499586
	H793	H	0.736474	0.584823	0.497201
	C794	C	0.760765	0.613865	0.496255
	H795	H	0.778971	0.617988	0.484616
	H796	H	0.827790	0.568494	0.489088
	H797	H	0.713508	0.538359	0.477300
	H798	H	0.741860	0.606371	0.506523
	C799	C	0.826191	0.555207	0.469419
	N800	N	0.846417	0.555011	0.477250
	H801	H	0.822715	0.551110	0.460532
	C802	C	0.670665	0.547033	0.472026
	N803	N	0.651220	0.552146	0.470507
	H804	H	0.672404	0.536585	0.472127
	C805	C	0.764502	0.626570	0.501936
	N806	N	0.775589	0.635375	0.498897
	H807	H	0.757654	0.628371	0.508978
	N808	N	0.248518	0.578259	1.018469
	C809	C	0.268830	0.571052	1.020631
	C810	C	0.230087	0.572947	1.021181
	C811	C	0.245836	0.590585	1.013149
	C812	C	0.233763	0.566548	1.031899
	C813	C	0.290090	0.577121	1.023515
	C814	C	0.233745	0.600252	1.016561
	C815	C	0.207630	0.574033	1.013164
	C816	C	0.215662	0.561491	1.034495
	H817	H	0.250975	0.565725	1.038198
	C818	C	0.268187	0.557577	1.019915
	C819	C	0.309752	0.570024	1.025447
	H820	H	0.291118	0.587475	1.024329
	C821	C	0.254713	0.593429	1.004276
	C822	C	0.230661	0.612219	1.011319
	H823	H	0.226823	0.598299	1.023412
	C824	C	0.189629	0.568845	1.015735
	H825	H	0.204474	0.578905	1.004847
	C826	C	0.193178	0.562481	1.026461
	H827	H	0.218885	0.556561	1.042795
	C828	C	0.287903	0.550514	1.021963
	H829	H	0.251993	0.552672	1.017598
	C830	C	0.309140	0.556562	1.024682
	H831	H	0.325957	0.574891	1.027556
	C832	C	0.251646	0.605443	0.999073
	H833	H	0.263784	0.586055	1.001384
	C834	C	0.239445	0.615103	1.002422
	H835	H	0.221112	0.619493	1.014023
	H836	H	0.172414	0.569821	1.009450
	H837	H	0.286890	0.540147	1.021238
	H838	H	0.258457	0.607372	0.992170
	C839	C	0.174092	0.557117	1.029123
	N840	N	0.153848	0.556682	1.021309
	H841	H	0.177607	0.553285	1.038010
	C842	C	0.329707	0.549038	1.026592
	N843	N	0.349135	0.554223	1.028134
	H844	H	0.328028	0.538585	1.026497
	C845	C	0.235794	0.627681	0.996827
	N846	N	0.224602	0.636536	0.999856
	H847	H	0.242822	0.629342	0.989867
