data_Molecule from CHK

_cell_length_a		101.321586
_cell_length_b		47.448345
_cell_length_c		76.462795
_cell_angle_alpha	90.067862
_cell_angle_beta	91.151949
_cell_angle_gamma	89.625566
_symmetry_space_group_name_H-M	'P 1'
_symmetry_Int_Tables_number		1

loop_
	_symmetry_equiv_pos_as_xyz
	x,y,z

loop_
	_atom_site_label
	_atom_site_type_symbol
	_atom_site_fract_x
	_atom_site_fract_y
	_atom_site_fract_z
	C0	C	-0.018966	-0.036942	0.538164
	C1	C	-0.025487	-0.036566	0.521936
	C2	C	-0.018257	-0.036410	0.506512
	C3	C	-0.004089	-0.036595	0.507244
	C4	C	0.002280	-0.036715	0.524178
	C5	C	-0.005220	-0.036935	0.539371
	H6	H	-0.036162	-0.036394	0.521011
	H7	H	-0.000164	-0.037012	0.551979
	C8	C	0.003477	-0.036810	0.491541
	C9	C	-0.002892	-0.037269	0.474608
	C10	C	0.004611	-0.037906	0.459420
	C11	C	0.018358	-0.038005	0.460629
	C12	C	0.024876	-0.037309	0.476852
	C13	C	0.017645	-0.036732	0.492274
	H14	H	-0.000444	-0.038231	0.446813
	H15	H	0.035551	-0.037209	0.477776
	C16	C	0.016323	-0.035934	0.524225
	C17	C	0.023488	-0.035575	0.509344
	C18	C	-0.024105	-0.035597	0.489435
	C19	C	-0.016939	-0.036367	0.474556
	H20	H	-0.024662	-0.037090	0.550008
	H21	H	0.024055	-0.038476	0.448787
	B22	B	0.037338	-0.031216	0.531852
	O23	O	0.024716	-0.033979	0.538582
	O24	O	0.036717	-0.033086	0.513650
	B25	B	-0.037975	-0.031625	0.466899
	O26	O	-0.025342	-0.034668	0.460187
	O27	O	-0.037343	-0.033083	0.485114
	N28	N	0.102352	-0.023968	0.558817
	C29	C	0.096961	-0.005196	0.570734
	C30	C	0.107960	0.005651	0.580369
	N31	N	0.119485	-0.004850	0.573476
	C32	C	0.106044	0.023982	0.594797
	C33	C	0.116846	0.036345	0.605854
	C34	C	0.092820	0.030417	0.598202
	H35	H	0.090642	0.045198	0.608573
	C36	C	0.082159	0.019830	0.588296
	H37	H	0.072281	0.026781	0.591468
	C38	C	0.083764	0.001700	0.574053
	C39	C	0.072326	-0.008461	0.563361
	C40	C	0.114755	0.042390	0.623620
	C41	C	0.060359	-0.015538	0.571204
	C42	C	0.072838	-0.010119	0.545018
	C43	C	0.129211	0.043346	0.599103
	C44	C	0.138784	0.056798	0.609413
	H45	H	0.131169	0.038457	0.585556
	C46	C	0.061844	-0.018050	0.535003
	H47	H	0.081799	-0.003884	0.538591
	C48	C	0.136455	0.063751	0.626950
	H49	H	0.148162	0.062226	0.603767
	C50	C	0.124272	0.055935	0.633831
	H51	H	0.105568	0.036329	0.629486
	C52	C	0.049368	-0.023379	0.561190
	H53	H	0.059760	-0.014980	0.585344
	C54	C	0.049843	-0.024655	0.542864
	H55	H	0.062456	-0.018601	0.520865
	H56	H	0.040245	-0.028399	0.567638
	H57	H	0.122225	0.060522	0.647412
	C58	C	0.115933	-0.021453	0.560461
	H59	H	0.097800	-0.039487	0.551859
	C60	C	0.124876	-0.037184	0.548996
	C61	C	0.137732	-0.044104	0.554742
	C62	C	0.146117	-0.059417	0.544032
	H63	H	0.140912	-0.037302	0.567706
	C64	C	0.120737	-0.045507	0.532133
	C65	C	0.141970	-0.068282	0.527265
	H66	H	0.155993	-0.064684	0.548728
	C67	C	0.129152	-0.060856	0.521540
	H68	H	0.111013	-0.039450	0.527276
	H69	H	0.125765	-0.067151	0.508581
	N70	N	0.896943	-0.023974	0.440102
	C71	C	0.902260	-0.005578	0.428021
	C72	C	0.891211	0.005285	0.418375
	N73	N	0.879729	-0.004821	0.425415
	C74	C	0.893049	0.023231	0.403795
	C75	C	0.882191	0.035618	0.392729
	C76	C	0.906250	0.029288	0.400253
	H77	H	0.908369	0.043773	0.389755
	C78	C	0.916962	0.018712	0.410178
	H79	H	0.926816	0.025378	0.406891
	C80	C	0.915434	0.000966	0.424574
	C81	C	0.926921	-0.009138	0.435301
	C82	C	0.884203	0.041253	0.374909
	C83	C	0.938895	-0.016587	0.427478
	C84	C	0.926445	-0.010350	0.453658
	C85	C	0.869853	0.043080	0.399529
	C86	C	0.860236	0.056600	0.389210
	H87	H	0.867954	0.038509	0.413121
	C88	C	0.937479	-0.018204	0.463701
	H89	H	0.917478	-0.003824	0.460064
	C90	C	0.862490	0.063164	0.371616
	H91	H	0.850883	0.062401	0.394895
	C92	C	0.874642	0.054870	0.364688
	H93	H	0.893365	0.034827	0.369011
	C94	C	0.949927	-0.024347	0.437521
	H95	H	0.939468	-0.016379	0.413333
	C96	C	0.949487	-0.025171	0.455857
	H97	H	0.936893	-0.018402	0.477844
	H98	H	0.959055	-0.029657	0.431087
	H99	H	0.876629	0.059146	0.351064
	C100	C	0.883353	-0.021128	0.438567
	H101	H	0.901537	-0.039460	0.447128
	C102	C	0.874488	-0.036757	0.450041
	C103	C	0.861695	-0.043812	0.444273
	C104	C	0.853398	-0.059030	0.455010
	H105	H	0.858493	-0.037191	0.431274
	C106	C	0.878653	-0.044845	0.466946
	C107	C	0.857575	-0.067666	0.471821
	H108	H	0.843570	-0.064403	0.450298
	C109	C	0.870329	-0.060105	0.477564
	H110	H	0.888325	-0.038678	0.471809
	H111	H	0.873735	-0.066219	0.490555
	C112	C	0.147361	0.135905	0.705328
	C113	C	0.158655	0.152125	0.707877
	C114	C	0.168348	0.152792	0.695066
	C115	C	0.166781	0.136899	0.679204
	C116	C	0.155008	0.120564	0.677022
	C117	C	0.145487	0.120236	0.690065
	H118	H	0.160109	0.164341	0.719716
	H119	H	0.136698	0.107701	0.688038
	C120	C	0.176662	0.137281	0.665979
	C121	C	0.188536	0.153352	0.668348
	C122	C	0.198101	0.153365	0.655382
	C123	C	0.196150	0.137835	0.640062
	C124	C	0.184719	0.122093	0.637308
	C125	C	0.174969	0.121564	0.650020
	H126	H	0.206969	0.165627	0.657457
	H127	H	0.183214	0.110103	0.625386
	C128	C	0.153763	0.105532	0.660978
	C129	C	0.162977	0.106174	0.648263
	C130	C	0.180135	0.168783	0.696628
	C131	C	0.189649	0.168832	0.684293
	H132	H	0.139931	0.135514	0.715319
	H133	H	0.203623	0.138044	0.630121
	B134	B	0.146217	0.080380	0.638637
	O135	O	0.143282	0.089242	0.655557
	O136	O	0.158611	0.090366	0.634120
	B137	B	0.196087	0.196899	0.705909
	O138	O	0.199851	0.186125	0.689775
	O139	O	0.183804	0.186141	0.710284
	C140	C	0.202891	0.865751	0.509869
	C141	C	0.190974	0.879100	0.513600
	C142	C	0.180312	0.877668	0.501696
	C143	C	0.181553	0.862420	0.485565
	C144	C	0.193965	0.848901	0.482171
	C145	C	0.204441	0.850769	0.494340
	H146	H	0.189792	0.890716	0.525669
	H147	H	0.213699	0.840395	0.491479
	C148	C	0.170716	0.860751	0.473193
	C149	C	0.158346	0.874451	0.476479
	C150	C	0.147873	0.872695	0.464285
	C151	C	0.149377	0.857545	0.448816
	C152	C	0.161245	0.843933	0.445196
	C153	C	0.171896	0.845348	0.457132
	H154	H	0.138651	0.883243	0.467103
	H155	H	0.162411	0.832161	0.433184
	C156	C	0.194674	0.833937	0.466049
	C157	C	0.184337	0.832122	0.454445
	C158	C	0.167815	0.890688	0.504447
	C159	C	0.157615	0.889328	0.492604
	H160	H	0.211070	0.867028	0.519183
	H161	H	0.141208	0.856320	0.439485
	B162	B	0.201033	0.807983	0.443668
	O163	O	0.205319	0.819147	0.459658
	O164	O	0.187957	0.816010	0.440304
	B165	B	0.150935	0.914327	0.515202
	O166	O	0.146926	0.904000	0.498855
	O167	O	0.163955	0.906205	0.518779
	C168	C	0.797071	0.866449	0.489350
	C169	C	0.808904	0.879771	0.485587
	C170	C	0.819569	0.878485	0.497503
	C171	C	0.818419	0.863411	0.513677
	C172	C	0.806093	0.849912	0.517102
	C173	C	0.795610	0.851634	0.504921
	H174	H	0.810016	0.891258	0.473486
	H175	H	0.786417	0.841281	0.507805
	C176	C	0.829261	0.861896	0.526063
	C177	C	0.841541	0.875590	0.522751
	C178	C	0.852018	0.873993	0.534962
	C179	C	0.850606	0.859007	0.550471
	C180	C	0.838827	0.845404	0.554117
	C181	C	0.828174	0.846663	0.542166
	H182	H	0.861172	0.884533	0.532124
	H183	H	0.837732	0.833760	0.566162
	C184	C	0.805473	0.835120	0.533266
	C185	C	0.815819	0.833437	0.544878
	C186	C	0.831984	0.891493	0.494724
	C187	C	0.842184	0.890290	0.506584
	H188	H	0.788888	0.867615	0.480026
	H189	H	0.858776	0.857907	0.559815
	B190	B	0.799277	0.809389	0.555715
	O191	O	0.794921	0.820384	0.539695
	O192	O	0.812302	0.817463	0.559059
	B193	B	0.848714	0.915053	0.483920
	O194	O	0.852779	0.904920	0.500303
	O195	O	0.835752	0.906857	0.480350
	C196	C	0.802834	0.139054	0.358744
	C197	C	0.800860	0.154584	0.343430
	C198	C	0.810381	0.154169	0.330408
	C199	C	0.822233	0.137682	0.332712
	C200	C	0.823952	0.121981	0.348667
	C201	C	0.814245	0.122917	0.361436
	H202	H	0.792009	0.167160	0.341404
	H203	H	0.815768	0.110929	0.373354
	C204	C	0.832068	0.136882	0.319429
	C205	C	0.830480	0.152772	0.303575
	C206	C	0.840128	0.151694	0.290706
	C207	C	0.851395	0.135063	0.293188
	C208	C	0.853289	0.119385	0.308442
	C209	C	0.843814	0.120119	0.321543
	H210	H	0.838659	0.163920	0.278875
	H211	H	0.862059	0.106535	0.310419
	C212	C	0.835923	0.106180	0.350363
	C213	C	0.845089	0.105125	0.337589
	C214	C	0.809248	0.169634	0.314470
	C215	C	0.818725	0.169205	0.302087
	H216	H	0.795394	0.139578	0.368728
	H217	H	0.858790	0.134356	0.283153
	B218	B	0.852688	0.079915	0.359929
	O219	O	0.840321	0.090338	0.364504
	O220	O	0.855565	0.088514	0.342967
	B221	B	0.802816	0.197934	0.292921
	O222	O	0.815057	0.186692	0.288467
	O223	O	0.799070	0.187302	0.309057
	N224	N	0.222428	0.277019	0.769360
	C225	C	0.231687	0.295469	0.776477
	C226	C	0.240133	0.302131	0.762504
	N227	N	0.235973	0.288172	0.747575
	C228	C	0.251024	0.320327	0.765282
	C229	C	0.260627	0.327896	0.751628
	C230	C	0.252435	0.331190	0.782253
	H231	H	0.260423	0.345743	0.784950
	C232	C	0.243757	0.324819	0.795729
	H233	H	0.245416	0.334127	0.808534
	C234	C	0.233109	0.306493	0.793419
	C235	C	0.224079	0.299861	0.807862
	C236	C	0.274241	0.327887	0.755615
	C237	C	0.221947	0.271987	0.813281
	C238	C	0.217664	0.321597	0.816925
	C239	C	0.256558	0.336127	0.734700
	C240	C	0.265688	0.345026	0.722517
	H241	H	0.246119	0.335700	0.731356
	C242	C	0.209480	0.315738	0.830824
	H243	H	0.219126	0.343198	0.812792
	C244	C	0.279269	0.345445	0.726603
	H245	H	0.262276	0.351622	0.709620
	C246	C	0.283336	0.336275	0.743333
	H247	H	0.277601	0.321061	0.768469
	C248	C	0.213901	0.266174	0.827370
	H249	H	0.227065	0.255024	0.806669
	C250	C	0.207492	0.287924	0.836432
	H251	H	0.204682	0.332971	0.837581
	H252	H	0.212616	0.244538	0.831519
	H253	H	0.293757	0.336222	0.746863
	C254	C	0.225463	0.273791	0.751859
	H255	H	0.215068	0.266817	0.775478
	C256	C	0.217907	0.254951	0.740105
	C257	C	0.223647	0.244758	0.724753
	C258	C	0.216766	0.226425	0.713707
	H259	H	0.233574	0.251471	0.721769
	C260	C	0.204991	0.246687	0.743894
	C261	C	0.203954	0.217568	0.717620
	H262	H	0.221396	0.218722	0.701955
	C263	C	0.198218	0.228225	0.732867
	H264	H	0.200167	0.255063	0.755299
	H265	H	0.188274	0.222018	0.736071
	N266	N	0.229266	0.733872	0.379432
	C267	C	0.239132	0.716688	0.372714
	C268	C	0.247811	0.710926	0.387126
	N269	N	0.243294	0.724546	0.401788
	C270	C	0.259112	0.693433	0.385138
	C271	C	0.268663	0.686129	0.399564
	C272	C	0.260727	0.682584	0.368268
	H273	H	0.268884	0.668305	0.365921
	C274	C	0.251976	0.688372	0.354274
	H275	H	0.253968	0.679184	0.341601
	C276	C	0.240851	0.705738	0.355867
	C277	C	0.231709	0.710975	0.340769
	C278	C	0.282022	0.680582	0.396058
	C279	C	0.227350	0.738179	0.336070
	C280	C	0.227467	0.688343	0.330242
	C281	C	0.264711	0.683567	0.417017
	C282	C	0.273557	0.674953	0.430168
	H283	H	0.254534	0.688045	0.420153
	C284	C	0.219349	0.692693	0.315622
	H285	H	0.230539	0.667125	0.333778
	C286	C	0.286776	0.668589	0.426513
	H287	H	0.270156	0.672919	0.443460
	C288	C	0.290823	0.671928	0.409193
	H289	H	0.285543	0.683223	0.382898
	C290	C	0.219250	0.742535	0.321348
	H291	H	0.230815	0.756017	0.343712
	C292	C	0.215113	0.719886	0.310781
	H293	H	0.216319	0.674747	0.307755
	H294	H	0.216211	0.763765	0.317821
	H295	H	0.300990	0.667403	0.405951
	C296	C	0.232319	0.737608	0.397025
	H297	H	0.221352	0.742654	0.373144
	C298	C	0.224259	0.755270	0.408606
	C299	C	0.229988	0.766331	0.423995
	C300	C	0.222627	0.783098	0.435168
	H301	H	0.240279	0.761471	0.426939
	C302	C	0.210906	0.761219	0.404837
	C303	C	0.209308	0.789440	0.431391
	H304	H	0.227257	0.791430	0.446970
	C305	C	0.203622	0.778091	0.416042
	H306	H	0.206174	0.752174	0.393343
	H307	H	0.193322	0.782442	0.412929
	N308	N	0.771669	0.735710	0.620184
	C309	C	0.761920	0.718607	0.626985
	C310	C	0.753158	0.712982	0.612669
	N311	N	0.757524	0.726570	0.597975
	C312	C	0.741935	0.695623	0.614770
	C313	C	0.732285	0.688483	0.600469
	C314	C	0.740491	0.684726	0.631635
	H315	H	0.732406	0.670527	0.634051
	C316	C	0.749328	0.690363	0.645527
	H317	H	0.747472	0.681147	0.658203
	C318	C	0.760370	0.707622	0.643828
	C319	C	0.769599	0.712719	0.658825
	C320	C	0.718973	0.683175	0.604175
	C321	C	0.773824	0.739881	0.663603
	C322	C	0.774054	0.689990	0.669186
	C323	C	0.736088	0.685856	0.582949
	C324	C	0.727147	0.677405	0.569919
	H325	H	0.746225	0.690167	0.579665
	C326	C	0.782242	0.694208	0.683733
	H327	H	0.771086	0.668806	0.665581
	C328	C	0.713979	0.671265	0.573772
	H329	H	0.730430	0.675333	0.556567
	C330	C	0.710088	0.674595	0.591173
	H331	H	0.715560	0.685910	0.617392
	C332	C	0.781990	0.744105	0.678257
	H333	H	0.770201	0.757785	0.656083
	C334	C	0.786336	0.721359	0.688666
	H335	H	0.785435	0.676190	0.691477
	H336	H	0.784917	0.765305	0.681857
	H337	H	0.699940	0.670439	0.594545
	C338	C	0.768485	0.739499	0.602629
	H339	H	0.779578	0.744424	0.626410
	C340	C	0.776418	0.757038	0.590974
	C341	C	0.770593	0.767973	0.575582
	C342	C	0.777834	0.784619	0.564341
	H343	H	0.760323	0.763115	0.572689
	C344	C	0.789745	0.762991	0.594674
	C345	C	0.791125	0.790969	0.568051
	H346	H	0.773132	0.792854	0.552539
	C347	C	0.796907	0.779747	0.583404
	H348	H	0.794559	0.754047	0.606168
	H349	H	0.807189	0.784103	0.586469
	N350	N	0.776529	0.279413	0.229871
	C351	C	0.767238	0.298095	0.222829
	C352	C	0.758834	0.304976	0.236857
	N353	N	0.763057	0.290939	0.251750
	C354	C	0.747910	0.323408	0.234159
	C355	C	0.738346	0.331187	0.247886
	C356	C	0.746438	0.334294	0.217208
	H357	H	0.738429	0.349035	0.214569
	C358	C	0.755084	0.327720	0.203677
	H359	H	0.753381	0.337067	0.190893
	C360	C	0.765755	0.309144	0.205907
	C361	C	0.774758	0.302296	0.191419
	C362	C	0.724721	0.331620	0.243969
	C363	C	0.776874	0.274377	0.185921
	C364	C	0.781175	0.323871	0.182407
	C365	C	0.742464	0.339132	0.264838
	C366	C	0.733372	0.348131	0.277126
	H367	H	0.752911	0.338373	0.268130
	C368	C	0.789355	0.317812	0.168489
	H369	H	0.779721	0.345501	0.186598
	C370	C	0.719780	0.348977	0.273114
	H371	H	0.736822	0.354454	0.290049
	C372	C	0.715667	0.340209	0.256331
	H373	H	0.721319	0.324995	0.231102
	C374	C	0.784915	0.268369	0.171813
	H375	H	0.771753	0.257547	0.192495
	C376	C	0.791334	0.289956	0.162810
	H377	H	0.794159	0.334925	0.161778
	H378	H	0.786191	0.246708	0.167607
	H379	H	0.705230	0.340299	0.252898
	C380	C	0.773591	0.276376	0.247407
	H381	H	0.783860	0.268981	0.223695
	C382	C	0.781095	0.257089	0.259038
	C383	C	0.775339	0.246941	0.274333
	C384	C	0.782188	0.228249	0.285276
	H385	H	0.765427	0.253987	0.277361
	C386	C	0.793992	0.248387	0.255191
	C387	C	0.794981	0.218967	0.281306
	H388	H	0.777548	0.220601	0.296991
	C389	C	0.800731	0.229558	0.266109
	H390	H	0.798826	0.256711	0.243828
	H391	H	0.810660	0.223020	0.262864
	C392	C	0.167885	0.340208	0.903347
	C393	C	0.175234	0.329799	0.889515
	C394	C	0.179247	0.301487	0.889309
	C395	C	0.175870	0.282929	0.903303
	C396	C	0.168380	0.294443	0.917379
	C397	C	0.164478	0.322828	0.917207
	H398	H	0.177929	0.343329	0.878787
	H399	H	0.158834	0.330958	0.927997
	C400	C	0.179819	0.253775	0.903191
	C401	C	0.187105	0.242168	0.888936
	C402	C	0.190754	0.213644	0.888938
	C403	C	0.187368	0.196291	0.902826
	C404	C	0.180376	0.206896	0.916936
	C405	C	0.176559	0.235312	0.917305
	H406	H	0.196251	0.205411	0.878042
	H407	H	0.177805	0.193420	0.927747
	C408	C	0.165572	0.275432	0.931173
	C409	C	0.169527	0.247937	0.931257
	C410	C	0.186866	0.289235	0.875805
	C411	C	0.190386	0.261486	0.875486
	H412	H	0.164825	0.362133	0.903358
	H413	H	0.190258	0.174263	0.902688
	B414	B	0.159747	0.256709	0.956275
	O415	O	0.159177	0.281489	0.946475
	O416	O	0.165903	0.235496	0.946727
	B417	B	0.199032	0.282153	0.852540
	O418	O	0.197789	0.256197	0.860871
	O419	O	0.192001	0.302740	0.861555
	C420	C	0.345933	0.361407	0.707211
	C421	C	0.332658	0.357591	0.710943
	C422	C	0.322814	0.370003	0.700305
	C423	C	0.326246	0.386826	0.685530
	C424	C	0.340003	0.390360	0.682145
	C425	C	0.349641	0.377612	0.692960
	H426	H	0.329760	0.345010	0.722009
	H427	H	0.359949	0.380655	0.690068
	C428	C	0.316255	0.399661	0.674496
	C429	C	0.302481	0.395402	0.677646
	C430	C	0.292872	0.407951	0.666722
	C431	C	0.296609	0.424775	0.652747
	C432	C	0.309888	0.429432	0.649351
	C433	C	0.319745	0.417103	0.659978
	H434	H	0.282557	0.404424	0.669367
	H435	H	0.312769	0.442488	0.638489
	C436	C	0.342941	0.407474	0.667490
	C437	C	0.333529	0.420526	0.657372
	C438	C	0.309064	0.367090	0.703154
	C439	C	0.299552	0.378320	0.692369
	H440	H	0.353464	0.351677	0.715502
	H441	H	0.289076	0.434398	0.644406
	B442	B	0.353084	0.431822	0.647212
	O443	O	0.355259	0.413895	0.661466
	O444	O	0.339559	0.436271	0.644655
	B445	B	0.289677	0.356108	0.713847
	O446	O	0.287267	0.371316	0.698491
	O447	O	0.303265	0.353055	0.716692
	C448	C	0.300732	0.622070	0.512396
	C449	C	0.312830	0.609156	0.516320
	C450	C	0.322397	0.606504	0.503439
	C451	C	0.319847	0.617076	0.486104
	C452	C	0.307266	0.630187	0.482522
	C453	C	0.297904	0.632489	0.495686
	H454	H	0.314994	0.601005	0.529289
	H455	H	0.288494	0.642450	0.492640
	C456	C	0.329592	0.614656	0.472770
	C457	C	0.342141	0.601430	0.476290
	C458	C	0.351561	0.599351	0.463175
	C459	C	0.348821	0.610163	0.446545
	C460	C	0.336726	0.623082	0.442643
	C461	C	0.327109	0.625436	0.455488
	H462	H	0.360944	0.589263	0.466193
	H463	H	0.334575	0.631403	0.429712
	C464	C	0.305163	0.640061	0.465098
	C465	C	0.314464	0.637976	0.452539
	C466	C	0.334945	0.593403	0.506271
	C467	C	0.344111	0.590880	0.493564
	H468	H	0.293407	0.623986	0.522469
	H469	H	0.356179	0.608453	0.436502
	B470	B	0.296581	0.657315	0.440509
	O471	O	0.293878	0.652360	0.458055
	O472	O	0.309513	0.648939	0.437074
	B473	B	0.352251	0.570753	0.517512
	O474	O	0.355072	0.576836	0.500146
	O475	O	0.339765	0.581170	0.521486
	C476	C	0.183200	0.806619	0.247788
	C477	C	0.178292	0.794701	0.232320
	C478	C	0.179179	0.765558	0.229631
	C479	C	0.185128	0.747717	0.242797
	C480	C	0.190118	0.760726	0.258547
	C481	C	0.189088	0.789943	0.260806
	H482	H	0.173773	0.807712	0.222205
	H483	H	0.192933	0.799267	0.272774
	C484	C	0.186030	0.717738	0.240301
	C485	C	0.181125	0.704671	0.224570
	C486	C	0.181995	0.675395	0.222362
	C487	C	0.187653	0.658628	0.235490
	C488	C	0.192571	0.670594	0.250924
	C489	C	0.191843	0.699814	0.253472
	H490	H	0.178210	0.666126	0.210346
	H491	H	0.197018	0.657597	0.261099
	C492	C	0.196071	0.742147	0.271081
	C493	C	0.196790	0.713729	0.268702
	C494	C	0.174592	0.751675	0.214150
	C495	C	0.175608	0.723291	0.211786
	H496	H	0.182462	0.829206	0.249697
	H497	H	0.188272	0.636013	0.233654
	B498	B	0.206739	0.723700	0.293892
	O499	O	0.202096	0.749092	0.286866
	O500	O	0.203217	0.701494	0.282805
	B501	B	0.166794	0.741567	0.187677
	O502	O	0.170750	0.716207	0.195443
	O503	O	0.168933	0.763746	0.199345
	C504	C	0.651884	0.613948	0.554814
	C505	C	0.663985	0.626673	0.558498
	C506	C	0.673465	0.628797	0.545481
	C507	C	0.670835	0.617979	0.528244
	C508	C	0.658286	0.604952	0.524951
	C509	C	0.649005	0.603102	0.538234
	H510	H	0.666244	0.635020	0.571390
	H511	H	0.639619	0.593160	0.535385
	C512	C	0.680438	0.620172	0.514735
	C513	C	0.693018	0.633090	0.518090
	C514	C	0.702237	0.635177	0.504757
	C515	C	0.699266	0.624730	0.488098
	C516	C	0.687165	0.611998	0.484392
	C517	C	0.677738	0.609561	0.497446
	H518	H	0.711650	0.644995	0.507633
	H519	H	0.684891	0.603823	0.471463
	C520	C	0.656172	0.594340	0.507717
	C521	C	0.665200	0.596644	0.494843
	C522	C	0.686107	0.641123	0.548205
	C523	C	0.695273	0.643001	0.535479
	H524	H	0.644632	0.612417	0.564988
	H525	H	0.706482	0.626479	0.477892
	B526	B	0.647855	0.574157	0.483937
	O527	O	0.645190	0.580414	0.501345
	O528	O	0.660263	0.584381	0.479724
	B529	B	0.704064	0.660167	0.559927
	O530	O	0.706598	0.655122	0.542327
	O531	O	0.691187	0.652043	0.563587
	C532	C	0.814621	0.659410	0.763374
	C533	C	0.809561	0.671517	0.748035
	C534	C	0.810009	0.700781	0.745680
	C535	C	0.815679	0.718606	0.758953
	C536	C	0.820734	0.705394	0.774583
	C537	C	0.820145	0.676077	0.776597
	H538	H	0.805217	0.658597	0.737788
	H539	H	0.824037	0.666697	0.788540
	C540	C	0.816299	0.748628	0.756652
	C541	C	0.811167	0.761781	0.741000
	C542	C	0.811926	0.791041	0.738928
	C543	C	0.817678	0.807622	0.752041
	C544	C	0.822714	0.795564	0.767421
	C545	C	0.822100	0.766375	0.769921
	H546	H	0.807979	0.800472	0.727029
	H547	H	0.827126	0.808500	0.777612
	C548	C	0.826092	0.723920	0.787479
	C549	C	0.826830	0.752350	0.785303
	C550	C	0.804898	0.714836	0.730562
	C551	C	0.805359	0.743293	0.728364
	H552	H	0.814219	0.636763	0.765060
	H553	H	0.818206	0.830243	0.750277
	B554	B	0.834730	0.742006	0.811708
	O555	O	0.831027	0.716688	0.803772
	O556	O	0.832376	0.764308	0.800185
	B557	B	0.794773	0.725028	0.705498
	O558	O	0.799227	0.750375	0.712654
	O559	O	0.798533	0.702714	0.716415
	C560	C	0.831191	0.341207	0.096254
	C561	C	0.823768	0.330996	0.109998
	C562	C	0.819747	0.302800	0.110116
	C563	C	0.823192	0.284158	0.096120
	C564	C	0.830761	0.295468	0.082137
	C565	C	0.834668	0.323741	0.082396
	H566	H	0.821020	0.344593	0.120725
	H567	H	0.840372	0.331716	0.071675
	C568	C	0.819232	0.255121	0.096140
	C569	C	0.811867	0.243712	0.110304
	C570	C	0.808204	0.215297	0.110210
	C571	C	0.811653	0.197863	0.096318
	C572	C	0.818724	0.208277	0.082296
	C573	C	0.822558	0.236579	0.082020
	H574	H	0.802646	0.207214	0.121038
	H575	H	0.821347	0.194739	0.071484
	C576	C	0.833645	0.276383	0.068341
	C577	C	0.829678	0.249007	0.068166
	C578	C	0.812061	0.290753	0.123531
	C579	C	0.808530	0.263107	0.123765
	H580	H	0.834257	0.363044	0.096312
	H581	H	0.808752	0.175922	0.096385
	B582	B	0.839647	0.257480	0.043293
	O583	O	0.840151	0.282250	0.053130
	O584	O	0.833402	0.236460	0.052723
	B585	B	0.799813	0.283981	0.146706
	O586	O	0.801070	0.258008	0.138319
	O587	O	0.806876	0.304382	0.137775
	C588	C	0.653195	0.366267	0.293162
	C589	C	0.666452	0.362239	0.289269
	C590	C	0.676339	0.374096	0.299981
	C591	C	0.672967	0.390562	0.315000
	C592	C	0.659226	0.394325	0.318550
	C593	C	0.649545	0.382134	0.307653
	H594	H	0.669303	0.349915	0.278019
	H595	H	0.639251	0.385335	0.310672
	C596	C	0.683003	0.402836	0.326109
	C597	C	0.696762	0.398351	0.322782
	C598	C	0.706414	0.410359	0.333777
	C599	C	0.702736	0.426862	0.347996
	C600	C	0.689472	0.431722	0.351572
	C601	C	0.679573	0.419928	0.340880
	H602	H	0.716717	0.406669	0.330995
	H603	H	0.686635	0.444525	0.362625
	C604	C	0.656350	0.411049	0.333459
	C605	C	0.665801	0.423574	0.343662
	C606	C	0.690075	0.370922	0.296983
	C607	C	0.699630	0.381616	0.307825
	H608	H	0.645631	0.356966	0.284811
	H609	H	0.710301	0.436070	0.356389
	B610	B	0.646295	0.434904	0.354196
	O611	O	0.644061	0.417525	0.339700
	O612	O	0.659826	0.439019	0.356663
	B613	B	0.709417	0.359693	0.286024
	O614	O	0.711888	0.374456	0.301529
	O615	O	0.695819	0.357094	0.283238
	N616	N	0.144236	0.274024	1.039828
	C617	C	0.141797	0.264923	1.056745
	C618	C	0.141860	0.235079	1.055771
	N619	N	0.143704	0.226797	1.038684
	C620	C	0.140665	0.218538	1.071101
	C621	C	0.141073	0.187141	1.070974
	C622	C	0.139602	0.233896	1.086672
	H623	H	0.138473	0.222456	1.098796
	C624	C	0.139399	0.263492	1.087267
	H625	H	0.138272	0.273901	1.099779
	C626	C	0.140358	0.280187	1.072292
	C627	C	0.140024	0.311467	1.072683
	C628	C	0.135446	0.171637	1.057059
	C629	C	0.131855	0.326737	1.060954
	C630	C	0.147794	0.326806	1.084723
	C631	C	0.147061	0.171862	1.084801
	C632	C	0.147355	0.142540	1.084705
	H633	H	0.151898	0.183189	1.095392
	C634	C	0.147605	0.356141	1.084792
	H635	H	0.154208	0.315398	1.093810
	C636	C	0.141567	0.127090	1.070921
	H637	H	0.152178	0.131382	1.095453
	C638	C	0.135583	0.142308	1.057120
	H639	H	0.130695	0.182915	1.046326
	C640	C	0.131559	0.356055	1.061169
	H641	H	0.125477	0.315233	1.051938
	C642	C	0.139498	0.371392	1.073007
	H643	H	0.153805	0.367436	1.094118
	H644	H	0.125100	0.367281	1.052054
	H645	H	0.131095	0.130999	1.046224
	C646	C	0.144885	0.250038	1.029521
	H647	H	0.146650	0.293626	1.035709
	C648	C	0.147845	0.251410	1.010768
	C649	C	0.153807	0.228213	1.002607
	C650	C	0.157351	0.229639	0.985151
	H651	H	0.155723	0.209363	1.010307
	C652	C	0.145126	0.275711	1.000828
	C653	C	0.155060	0.254197	0.975259
	H654	H	0.162111	0.211631	0.979158
	C655	C	0.148760	0.277030	0.983406
	H656	H	0.140087	0.293391	1.006752
	H657	H	0.146743	0.296079	0.975977
	N658	N	0.401313	0.509527	0.564007
	C659	C	0.406429	0.495588	0.578662
	C660	C	0.395328	0.488924	0.588931
	N661	N	0.384040	0.498698	0.580531
	C662	C	0.396865	0.474189	0.605060
	C663	C	0.385628	0.464350	0.615887
	C664	C	0.410015	0.468121	0.609830
	H665	H	0.412226	0.458230	0.622288
	C666	C	0.420802	0.474567	0.599368
	H667	H	0.430656	0.468793	0.603923
	C668	C	0.419438	0.488175	0.583237
	C669	C	0.430865	0.492519	0.571727
	C670	C	0.387504	0.443199	0.628646
	C671	C	0.434280	0.519018	0.565047
	C672	C	0.438740	0.469240	0.567217
	C673	C	0.372689	0.474922	0.613649
	C674	C	0.362263	0.464857	0.623446
	H675	H	0.370767	0.491514	0.604236
	C676	C	0.449433	0.472208	0.556315
	H677	H	0.436181	0.448598	0.572156
	C678	C	0.364253	0.443892	0.636169
	H679	H	0.352438	0.473544	0.621313
	C680	C	0.377132	0.433376	0.638530
	H681	H	0.397068	0.433357	0.630559
	C682	C	0.445136	0.522035	0.554283
	H683	H	0.428505	0.537302	0.568778
	C684	C	0.452889	0.498653	0.549609
	H685	H	0.455226	0.453734	0.552995
	H686	H	0.447665	0.542710	0.549400
	H687	H	0.379035	0.417053	0.648193
	C688	C	0.387752	0.510424	0.565883
	H689	H	0.406177	0.518081	0.553856
	C690	C	0.378898	0.525292	0.553419
	C691	C	0.382225	0.529249	0.535855
	C692	C	0.373708	0.543805	0.524524
	H693	H	0.391352	0.520468	0.531050
	C694	C	0.366751	0.535837	0.559169
	C695	C	0.361603	0.554718	0.530223
	H696	H	0.376426	0.546677	0.511002
	C697	C	0.358271	0.550283	0.547751
	H698	H	0.364167	0.532486	0.572712
	H699	H	0.348950	0.558289	0.552470
	N700	N	0.144390	0.724607	0.105450
	C701	C	0.142342	0.733581	0.088281
	C702	C	0.143141	0.763417	0.089030
	N703	N	0.146751	0.771510	0.105796
	C704	C	0.140327	0.780037	0.073955
	C705	C	0.140610	0.811505	0.073878
	C706	C	0.137137	0.764569	0.058842
	H707	H	0.135346	0.775754	0.046683
	C708	C	0.136706	0.734986	0.058360
	H709	H	0.134576	0.724687	0.045973
	C710	C	0.139397	0.718222	0.073043
	C711	C	0.139271	0.686891	0.072625
	C712	C	0.132806	0.827243	0.061915
	C713	C	0.129719	0.671931	0.062865
	C714	C	0.148887	0.671108	0.081925
	C715	C	0.148650	0.826745	0.085694
	C716	C	0.148899	0.856076	0.085541
	H717	H	0.154798	0.815380	0.095075
	C718	C	0.148790	0.641797	0.081765
	H719	H	0.156727	0.682116	0.088898
	C720	C	0.141204	0.871658	0.073475
	H721	H	0.155159	0.867101	0.094924
	C722	C	0.133183	0.856545	0.061647
	H723	H	0.126230	0.816448	0.052868
	C724	C	0.129646	0.642586	0.062674
	H725	H	0.122151	0.683584	0.055657
	C726	C	0.139135	0.626887	0.072199
	H727	H	0.156359	0.630235	0.089031
	H728	H	0.122103	0.631631	0.055108
	H729	H	0.127021	0.867971	0.052271
	C730	C	0.147993	0.748238	0.115007
	H731	H	0.141973	0.705865	0.110881
	C732	C	0.152392	0.746472	0.133460
	C733	C	0.152624	0.770764	0.143963
	C734	C	0.157090	0.769432	0.161286
	H735	H	0.149315	0.790550	0.138206
	C736	C	0.156775	0.720847	0.140776
	C737	C	0.161421	0.743840	0.168720
	H738	H	0.157261	0.788449	0.169153
	C739	C	0.161141	0.719650	0.158105
	H740	H	0.157056	0.702017	0.132783
	H741	H	0.164540	0.699681	0.163473
	N742	N	0.598602	0.512041	0.438832
	C743	C	0.593424	0.497567	0.424454
	C744	C	0.604405	0.491184	0.413812
	N745	N	0.615690	0.501612	0.421761
	C746	C	0.602775	0.476059	0.397821
	C747	C	0.613926	0.466574	0.386584
	C748	C	0.589632	0.469320	0.393604
	H749	H	0.587283	0.459035	0.381322
	C750	C	0.578976	0.475488	0.404432
	H751	H	0.569132	0.469161	0.400296
	C752	C	0.580457	0.489499	0.420416
	C753	C	0.569211	0.493619	0.432306
	C754	C	0.612015	0.445968	0.373492
	C755	C	0.565371	0.520188	0.438652
	C756	C	0.561938	0.470059	0.437499
	C757	C	0.626848	0.476942	0.388745
	C758	C	0.637214	0.467160	0.378612
	H759	H	0.628831	0.493129	0.398390
	C760	C	0.551397	0.472850	0.448708
	H761	H	0.564840	0.449376	0.432820
	C762	C	0.635183	0.446718	0.365583
	H763	H	0.647026	0.475654	0.380733
	C764	C	0.622314	0.436504	0.363229
	H765	H	0.602486	0.436271	0.371528
	C766	C	0.554657	0.523011	0.449714
	H767	H	0.570690	0.538643	0.434418
	C768	C	0.547495	0.499371	0.455047
	H769	H	0.546066	0.454176	0.452541
	H770	H	0.551777	0.543737	0.454311
	H771	H	0.620394	0.420454	0.353406
	C772	C	0.612088	0.513541	0.436445
	H773	H	0.593795	0.520649	0.449069
	C774	C	0.621004	0.528524	0.448685
	C775	C	0.633030	0.538921	0.442653
	C776	C	0.641577	0.553429	0.453854
	H777	H	0.635475	0.535374	0.429069
	C778	C	0.617863	0.532735	0.466305
	C779	C	0.638432	0.558095	0.471439
	H780	H	0.650805	0.561301	0.448919
	C781	C	0.626444	0.547353	0.477418
	H782	H	0.608842	0.524076	0.471343
	H783	H	0.623872	0.550403	0.490989
	N784	N	0.856718	0.724468	0.894149
	C785	C	0.858508	0.733447	0.911363
	C786	C	0.857730	0.763301	0.910599
	N787	N	0.854378	0.771441	0.893751
	C788	C	0.860304	0.779890	0.925749
	C789	C	0.860013	0.811364	0.925827
	C790	C	0.863267	0.764386	0.940935
	H791	H	0.864874	0.775569	0.953135
	C792	C	0.863688	0.734793	0.941419
	H793	H	0.865628	0.724475	0.953852
	C794	C	0.861215	0.718058	0.926669
	C795	C	0.861316	0.686726	0.927087
	C796	C	0.867662	0.826934	0.937962
	C797	C	0.870727	0.671511	0.937069
	C798	C	0.851812	0.671204	0.917563
	C799	C	0.852114	0.826774	0.913842
	C800	C	0.851851	0.856111	0.913999
	H801	H	0.846089	0.815534	0.904327
	C802	C	0.851882	0.641891	0.917735
	H803	H	0.844074	0.682429	0.910404
	C804	C	0.859391	0.871531	0.926233
	H805	H	0.845703	0.867270	0.904487
	C806	C	0.867273	0.856246	0.938227
	H807	H	0.874129	0.815990	0.947145
	C808	C	0.870774	0.642165	0.937266
	H809	H	0.878207	0.682960	0.944452
	C810	C	0.861397	0.626721	0.927529
	H811	H	0.844399	0.630535	0.910298
	H812	H	0.878207	0.631007	0.945010
	H813	H	0.873315	0.867543	0.947736
	C814	C	0.853324	0.748182	0.884485
	H815	H	0.859192	0.705605	0.888811
	C816	C	0.848988	0.746494	0.866003
	C817	C	0.848501	0.770915	0.855649
	C818	C	0.844085	0.769714	0.838303
	H819	H	0.851574	0.790703	0.861538
	C820	C	0.844919	0.720865	0.858499
	C821	C	0.840058	0.744127	0.830690
	H822	H	0.843713	0.788833	0.830559
	C823	C	0.840599	0.719802	0.841148
	H824	H	0.844845	0.701901	0.866346
	H825	H	0.837442	0.699827	0.835637
	N826	N	0.855940	0.274086	-0.039954
	C827	C	0.858455	0.264870	-0.056853
	C828	C	0.858405	0.235031	-0.055885
	N829	N	0.856507	0.226853	-0.038813
	C830	C	0.859653	0.218410	-0.071213
	C831	C	0.859257	0.187022	-0.071101
	C832	C	0.860772	0.233695	-0.086769
	H833	H	0.861951	0.222191	-0.098888
	C834	C	0.860973	0.263284	-0.087353
	H835	H	0.862150	0.273620	-0.099853
	C836	C	0.859952	0.280051	-0.072383
	C837	C	0.860288	0.311322	-0.072763
	C838	C	0.864808	0.171410	-0.057137
	C839	C	0.868377	0.326405	-0.060934
	C840	C	0.852605	0.326839	-0.084897
	C841	C	0.853360	0.171856	-0.084995
	C842	C	0.853083	0.142542	-0.084918
	H843	H	0.848578	0.183274	-0.095630
	C844	C	0.852802	0.356168	-0.084965
	H845	H	0.846251	0.315582	-0.094061
	C846	C	0.858797	0.126980	-0.071082
	H847	H	0.848331	0.131478	-0.095720
	C848	C	0.864686	0.142084	-0.057212
	H849	H	0.869491	0.182592	-0.046349
	C850	C	0.868679	0.355714	-0.061144
	H851	H	0.874693	0.314755	-0.051844
	C852	C	0.860828	0.371233	-0.073081
	H853	H	0.846671	0.367604	-0.094368
	H854	H	0.875077	0.366789	-0.051952
	H855	H	0.869115	0.130689	-0.046275
	C856	C	0.855327	0.250155	-0.029640
	H857	H	0.853469	0.293746	-0.035848
	C858	C	0.852129	0.251668	-0.010962
	C859	C	0.846030	0.228704	-0.002943
	C860	C	0.842294	0.230294	0.014438
	H861	H	0.844171	0.209905	-0.010692
	C862	C	0.854773	0.275897	-0.000954
	C863	C	0.844517	0.254790	0.024392
	H864	H	0.837439	0.212467	0.020323
	C865	C	0.850944	0.277385	0.016388
	H866	H	0.859911	0.293379	-0.006769
	H867	H	0.852910	0.296378	0.023870
	C868	C	0.121349	-0.001369	0.033697
	C869	C	0.125171	-0.026771	0.041479
	C870	C	0.133238	-0.026816	0.056577
	C871	C	0.137628	-0.000781	0.064203
	C872	C	0.133480	0.024951	0.055848
	C873	C	0.125430	0.024322	0.040741
	H874	H	0.122004	-0.046724	0.036008
	H875	H	0.122451	0.044054	0.034710
	C876	C	0.145911	-0.000495	0.079689
	C877	C	0.150202	-0.026243	0.087908
	C878	C	0.158298	-0.025610	0.102971
	C879	C	0.162241	0.000091	0.110140
	C880	C	0.158244	0.025507	0.102523
	C881	C	0.150168	0.025556	0.087434
	H882	H	0.161392	-0.045347	0.108897
	H883	H	0.161310	0.045464	0.108090
	C884	C	0.138014	0.050211	0.063955
	C885	C	0.145673	0.050497	0.078798
	C886	C	0.137628	-0.051750	0.065306
	C887	C	0.145659	-0.051507	0.079806
	H888	H	0.115116	-0.001593	0.022015
	H889	H	0.168499	0.000315	0.121799
	B890	B	0.141762	0.094660	0.071008
	O891	O	0.135449	0.077488	0.058649
	O892	O	0.148185	0.077973	0.083612
	B893	B	0.141448	-0.095923	0.073136
	O894	O	0.148307	-0.078812	0.085009
	O895	O	0.134753	-0.079186	0.060802
	C896	C	0.113097	0.498946	0.040941
	C897	C	0.118219	0.473423	0.047133
	C898	C	0.128498	0.473158	0.059663
	C899	C	0.133869	0.499104	0.066228
	C900	C	0.128359	0.524971	0.059538
	C901	C	0.118068	0.524548	0.047030
	H902	H	0.114344	0.453554	0.042406
	H903	H	0.114091	0.544360	0.042204
	C904	C	0.144420	0.499177	0.079082
	C905	C	0.149823	0.473328	0.085936
	C906	C	0.160098	0.473742	0.098470
	C907	C	0.165195	0.499334	0.104381
	C908	C	0.160199	0.524847	0.098002
	C909	C	0.149906	0.525105	0.085490
	H910	H	0.163989	0.453931	0.103416
	H911	H	0.164162	0.544715	0.102598
	C912	C	0.134049	0.550121	0.066393
	C913	C	0.144193	0.550163	0.078358
	C914	C	0.134264	0.448096	0.066726
	C915	C	0.144108	0.448183	0.079124
	H916	H	0.105139	0.498888	0.031259
	H917	H	0.173154	0.499390	0.114062
	B918	B	0.139106	0.594432	0.072166
	O919	O	0.130578	0.577513	0.062278
	O920	O	0.147648	0.577550	0.082216
	B921	B	0.139300	0.403848	0.073074
	O922	O	0.147450	0.420831	0.083474
	O923	O	0.131039	0.420668	0.062585
	C924	C	0.501215	0.426391	0.503474
	C925	C	0.510444	0.440961	0.493763
	C926	C	0.510213	0.470494	0.493317
	C927	C	0.500506	0.486093	0.502760
	C928	C	0.491167	0.470363	0.512572
	C929	C	0.491638	0.440833	0.512833
	H930	H	0.517894	0.429770	0.486490
	H931	H	0.484451	0.429544	0.520370
	C932	C	0.500152	0.516380	0.502408
	C933	C	0.509686	0.532034	0.492780
	C934	C	0.509211	0.561529	0.492604
	C935	C	0.499468	0.575904	0.501736
	C936	C	0.490054	0.561372	0.511188
	C937	C	0.490257	0.531876	0.511679
	H938	H	0.516491	0.572874	0.485258
	H939	H	0.482511	0.572599	0.518273
	C940	C	0.481676	0.486666	0.521643
	C941	C	0.481083	0.515338	0.521067
	C942	C	0.519296	0.486932	0.483820
	C943	C	0.519220	0.515639	0.483731
	H944	H	0.501486	0.403563	0.503748
	H945	H	0.499205	0.598737	0.501478
	B946	B	0.464919	0.500383	0.537655
	O947	O	0.471791	0.476631	0.531939
	O948	O	0.470605	0.524640	0.530905
	B949	B	0.535608	0.500912	0.467275
	O950	O	0.529422	0.525115	0.473574
	O951	O	0.529352	0.477029	0.473649
	C952	C	0.878787	-0.001876	-0.033619
	C953	C	0.874749	0.023896	-0.040714
	C954	C	0.866835	0.024682	-0.055945
	C955	C	0.862784	-0.000970	-0.064378
	C956	C	0.867126	-0.027093	-0.056697
	C957	C	0.875056	-0.027205	-0.041474
	H958	H	0.877657	0.043573	-0.034627
	H959	H	0.878189	-0.047221	-0.035963
	C960	C	0.854643	-0.000523	-0.079993
	C961	C	0.850429	0.025612	-0.087786
	C962	C	0.842492	0.025719	-0.103001
	C963	C	0.838591	0.000381	-0.110700
	C964	C	0.842496	-0.025397	-0.103488
	C965	C	0.850454	-0.026188	-0.088298
	H966	H	0.839455	0.045736	-0.108601
	H967	H	0.839476	-0.045075	-0.109476
	C968	C	0.862837	-0.051943	-0.065508
	C969	C	0.854946	-0.051541	-0.080140
	C970	C	0.862353	0.050032	-0.064108
	C971	C	0.854821	0.050467	-0.079063
	H972	H	0.884914	-0.002220	-0.021842
	H973	H	0.832440	0.000728	-0.122456
	B974	B	0.859127	-0.096043	-0.073422
	O975	O	0.865688	-0.079438	-0.060968
	O976	O	0.852372	-0.078795	-0.085403
	B977	B	0.858626	0.094555	-0.071189
	O978	O	0.852323	0.077992	-0.083895
	O979	O	0.864850	0.077260	-0.058749
	C980	C	0.886985	0.498149	-0.040625
	C981	C	0.882099	0.523870	-0.046826
	C982	C	0.871940	0.524541	-0.059521
	C983	C	0.866477	0.498808	-0.066288
	C984	C	0.871757	0.472733	-0.059603
	C985	C	0.881906	0.472750	-0.046887
	H986	H	0.886043	0.543586	-0.041946
	H987	H	0.885715	0.452788	-0.042073
	C988	C	0.856057	0.499136	-0.079330
	C989	C	0.850663	0.525200	-0.085863
	C990	C	0.840496	0.525189	-0.098556
	C991	C	0.835538	0.499794	-0.104993
	C992	C	0.840549	0.474079	-0.098963
	C993	C	0.850697	0.473416	-0.086249
	H994	H	0.836600	0.545153	-0.103245
	H995	H	0.836688	0.454360	-0.103955
	C996	C	0.866044	0.447810	-0.066749
	C997	C	0.856320	0.448133	-0.079313
	C998	C	0.866344	0.549828	-0.066504
	C999	C	0.856329	0.550120	-0.078658
	H1000	H	0.894842	0.497899	-0.030798
	H1001	H	0.827677	0.500043	-0.114814
	B1002	B	0.861039	0.403682	-0.073153
	O1003	O	0.869209	0.420306	-0.062536
	O1004	O	0.852999	0.420859	-0.083698
	B1005	B	0.861395	0.594265	-0.072416
	O1006	O	0.852946	0.577593	-0.082612
	O1007	O	0.869799	0.577134	-0.062350
