data_Molecule from CHK

_cell_length_a		78.056577
_cell_length_b		77.354301
_cell_length_c		127.363422
_cell_angle_alpha	91.659701
_cell_angle_beta	91.172037
_cell_angle_gamma	87.987200
_symmetry_space_group_name_H-M	'P 1'
_symmetry_Int_Tables_number		1

loop_
	_symmetry_equiv_pos_as_xyz
	x,y,z

loop_
	_atom_site_label
	_atom_site_type_symbol
	_atom_site_fract_x
	_atom_site_fract_y
	_atom_site_fract_z
	C0	C	0.314435	0.452609	0.704865
	C1	C	0.303703	0.438861	0.706574
	C2	C	0.302268	0.425462	0.699089
	C3	C	0.311682	0.425414	0.689830
	C4	C	0.322605	0.439056	0.688228
	C5	C	0.324000	0.452484	0.695687
	C6	C	0.310368	0.410961	0.681917
	N7	N	0.316572	0.395285	0.684585
	C8	C	0.315261	0.382615	0.677217
	N9	N	0.308108	0.384901	0.667673
	C10	C	0.302180	0.400974	0.665639
	N11	N	0.303039	0.414354	0.672562
	C12	C	0.322339	0.365110	0.679869
	C13	C	0.332806	0.355578	0.672819
	C14	C	0.339850	0.339453	0.675477
	C15	C	0.336647	0.332566	0.685253
	C16	C	0.325844	0.341826	0.692216
	C17	C	0.318800	0.357941	0.689546
	C18	C	0.294273	0.404306	0.655098
	C19	C	0.281154	0.417008	0.653928
	C20	C	0.273974	0.420448	0.644070
	C21	C	0.279712	0.411170	0.635130
	C22	C	0.292862	0.398554	0.636250
	C23	C	0.300047	0.395146	0.646111
	H24	H	0.294150	0.414677	0.700308
	H25	H	0.296750	0.438555	0.713833
	H26	H	0.332617	0.462941	0.694565
	H27	H	0.329962	0.438801	0.681113
	H28	H	0.335320	0.361085	0.665316
	H29	H	0.347861	0.331966	0.670035
	H30	H	0.322701	0.336188	0.699590
	H31	H	0.310491	0.365285	0.694857
	H32	H	0.276868	0.424169	0.660871
	H33	H	0.264160	0.430598	0.643285
	H34	H	0.297318	0.391467	0.629301
	H35	H	0.310172	0.385356	0.647015
	C36	C	0.316450	0.467147	0.712890
	O37	O	0.330207	0.473405	0.714865
	N38	N	0.301079	0.473742	0.717093
	H39	H	0.289804	0.469316	0.714099
	C40	C	0.344762	0.315308	0.688096
	O41	O	0.345632	0.303145	0.681901
	N42	N	0.352535	0.315232	0.698075
	H43	H	0.352748	0.326559	0.702356
	C44	C	0.272302	0.414710	0.624331
	O45	O	0.280998	0.413321	0.616556
	N46	N	0.254833	0.419369	0.624140
	H47	H	0.247519	0.415877	0.630233
	F48	F	0.316330	0.506924	0.738760
	C49	C	0.300650	0.512180	0.741838
	C50	C	0.299584	0.524553	0.749945
	F51	F	0.314256	0.530402	0.754132
	C52	C	0.283915	0.531093	0.753906
	C53	C	0.269315	0.524152	0.748967
	F54	F	0.253643	0.529414	0.752058
	C55	C	0.270380	0.511772	0.740858
	F56	F	0.255714	0.505921	0.736666
	C57	C	0.286052	0.505178	0.736929
	N58	N	0.268916	0.550114	0.766165
	C59	C	0.283243	0.544078	0.762543
	H60	H	0.295689	0.548194	0.765632
	N61	N	0.301235	0.486022	0.724889
	C62	C	0.286818	0.491985	0.728406
	H63	H	0.274431	0.487633	0.725365
	F64	F	0.370837	0.267360	0.701272
	C65	C	0.378053	0.270183	0.710765
	C66	C	0.386886	0.256366	0.715388
	F67	F	0.387645	0.241160	0.710064
	C68	C	0.395011	0.257692	0.725309
	C69	C	0.393362	0.274133	0.730261
	F70	F	0.400478	0.276978	0.739781
	C71	C	0.384533	0.287935	0.725642
	F72	F	0.383717	0.303112	0.731003
	C73	C	0.376549	0.286662	0.715678
	N74	N	0.411932	0.244489	0.739036
	C75	C	0.404481	0.242974	0.729982
	H76	H	0.404812	0.230936	0.725247
	N77	N	0.360367	0.300678	0.701814
	C78	C	0.367573	0.301628	0.710975
	H79	H	0.367536	0.313598	0.715783
	F80	F	0.217659	0.432399	0.604774
	C81	C	0.226957	0.441840	0.598493
	C82	C	0.218407	0.450008	0.590232
	F83	F	0.201483	0.447918	0.589093
	C84	C	0.226678	0.460353	0.583151
	C85	C	0.244441	0.461501	0.584955
	F86	F	0.253765	0.470797	0.578617
	C87	C	0.252992	0.453338	0.593211
	F88	F	0.269925	0.455384	0.594298
	C89	C	0.244652	0.443270	0.600418
	N90	N	0.224927	0.479165	0.568469
	C91	C	0.217258	0.469326	0.574689
	H92	H	0.203459	0.467276	0.574199
	N93	N	0.246084	0.426556	0.616014
	C94	C	0.253969	0.435173	0.609246
	H95	H	0.267674	0.437663	0.609692
	C96	C	0.242585	0.609515	0.861904
	C97	C	0.235741	0.601926	0.852694
	C98	C	0.241439	0.606558	0.842901
	C99	C	0.254301	0.618640	0.842056
	C100	C	0.261235	0.626041	0.851316
	C101	C	0.255467	0.621511	0.861111
	C102	C	0.260762	0.623111	0.831557
	N103	N	0.258014	0.611994	0.823457
	C104	C	0.264155	0.616291	0.814172
	N105	N	0.272670	0.630734	0.812670
	C106	C	0.274957	0.641117	0.821170
	N107	N	0.269160	0.637833	0.830721
	C108	C	0.261564	0.604205	0.805021
	C109	C	0.250151	0.608593	0.796805
	C110	C	0.247835	0.597246	0.788239
	C111	C	0.256968	0.581364	0.787680
	C112	C	0.268162	0.576801	0.795963
	C113	C	0.270451	0.588144	0.804534
	C114	C	0.284740	0.657059	0.819864
	C115	C	0.278751	0.669885	0.813010
	C116	C	0.288238	0.684516	0.811518
	C117	C	0.303938	0.686571	0.816860
	C118	C	0.309733	0.674004	0.823905
	C119	C	0.300261	0.659372	0.825375
	H120	H	0.236269	0.600661	0.835762
	H121	H	0.226174	0.592195	0.853192
	H122	H	0.261011	0.627054	0.868267
	H123	H	0.271262	0.635249	0.850699
	H124	H	0.243193	0.620919	0.797323
	H125	H	0.238879	0.600451	0.781912
	H126	H	0.274634	0.564184	0.795816
	H127	H	0.278928	0.584786	0.811045
	H128	H	0.266693	0.667985	0.808869
	H129	H	0.283430	0.694461	0.806305
	H130	H	0.321811	0.675811	0.828083
	H131	H	0.304702	0.649488	0.830721
	C132	C	0.237028	0.604340	0.872617
	O133	O	0.246801	0.604434	0.880138
	N134	N	0.219589	0.601022	0.873245
	H135	H	0.211365	0.605762	0.867607
	C136	C	0.254274	0.569295	0.778328
	O137	O	0.240259	0.567318	0.774294
	N138	N	0.269402	0.561983	0.774195
	H139	H	0.280829	0.565918	0.777252
	C140	C	0.314967	0.701780	0.815035
	O141	O	0.322541	0.709181	0.822140
	N142	N	0.316965	0.705401	0.804452
	H143	H	0.311275	0.697667	0.798893
	C144	C	0.471932	0.092428	0.750695
	C145	C	0.464706	0.096970	0.760414
	C146	C	0.466696	0.113491	0.764819
	C147	C	0.475740	0.125842	0.759549
	C148	C	0.482597	0.121374	0.749711
	C149	C	0.480651	0.104841	0.745314
	C150	C	0.478028	0.143378	0.764363
	N151	N	0.490128	0.145059	0.771921
	C152	C	0.491823	0.160988	0.776168
	N153	N	0.482145	0.174778	0.773274
	C154	C	0.470357	0.171984	0.765656
	N155	N	0.467883	0.156496	0.760977
	C156	C	0.505117	0.163532	0.784601
	C157	C	0.510095	0.150011	0.791235
	C158	C	0.522470	0.152425	0.799128
	C159	C	0.529981	0.168479	0.800666
	C160	C	0.525337	0.181934	0.793937
	C161	C	0.513009	0.179475	0.786016
	C162	C	0.459474	0.187040	0.762216
	C163	C	0.460092	0.192735	0.751884
	C164	C	0.450145	0.207046	0.748725
	C165	C	0.439293	0.215892	0.755849
	C166	C	0.438763	0.210314	0.766189
	C167	C	0.448692	0.196004	0.769334
	H168	H	0.461240	0.117226	0.772323
	H169	H	0.457410	0.087607	0.764429
	H170	H	0.485768	0.101328	0.737663
	H171	H	0.489327	0.131081	0.745642
	H172	H	0.504153	0.137658	0.790060
	H173	H	0.526383	0.141991	0.804252
	H174	H	0.531556	0.194200	0.794837
	H175	H	0.509247	0.189813	0.780809
	H176	H	0.468623	0.185815	0.746510
	H177	H	0.451210	0.211726	0.740843
	H178	H	0.430641	0.217487	0.771714
	H179	H	0.448498	0.191682	0.777332
	C180	C	0.470160	0.074550	0.745849
	O181	O	0.467150	0.072146	0.736562
	N182	N	0.473874	0.061178	0.752770
	H183	H	0.478222	0.064279	0.760160
	C184	C	0.543261	0.170755	0.809309
	O185	O	0.554495	0.159918	0.810980
	N186	N	0.541249	0.186099	0.815284
	H187	H	0.530542	0.193744	0.814053
	C188	C	0.428761	0.231744	0.752801
	O189	O	0.426513	0.243971	0.758849
	N190	N	0.420671	0.230585	0.742923
	H191	H	0.421294	0.219117	0.738792
	C192	C	0.097753	0.529258	0.515309
	C193	C	0.107197	0.529601	0.506086
	C194	C	0.124665	0.532779	0.506587
	C195	C	0.133091	0.535470	0.516297
	C196	C	0.123633	0.534791	0.525511
	C197	C	0.106170	0.531654	0.525019
	C198	C	0.151762	0.538850	0.516845
	N199	N	0.161551	0.530151	0.523840
	C200	C	0.178264	0.533639	0.524150
	N201	N	0.185311	0.545053	0.517949
	C202	C	0.174638	0.553210	0.511191
	N203	N	0.157802	0.550461	0.510352
	C204	C	0.189659	0.524485	0.531873
	C205	C	0.202145	0.533517	0.537640
	C206	C	0.212904	0.525030	0.544824
	C207	C	0.211339	0.507357	0.546477
	C208	C	0.199029	0.498209	0.540651
	C209	C	0.188293	0.506715	0.533437
	C210	C	0.182072	0.566110	0.504310
	C211	C	0.187183	0.561444	0.494097
	C212	C	0.194654	0.573439	0.487803
	C213	C	0.197296	0.590304	0.491665
	C214	C	0.191686	0.595136	0.501729
	C215	C	0.184232	0.583149	0.508013
	H216	H	0.132129	0.533142	0.499535
	H217	H	0.100884	0.527180	0.498563
	H218	H	0.098848	0.530893	0.532125
	H219	H	0.130263	0.536595	0.532985
	H220	H	0.203362	0.547156	0.536270
	H221	H	0.222761	0.531912	0.549170
	H222	H	0.198254	0.484382	0.541546
	H223	H	0.178773	0.499819	0.528841
	H224	H	0.185227	0.548307	0.491304
	H225	H	0.198314	0.569800	0.479867
	H226	H	0.193510	0.608304	0.504577
	H227	H	0.180109	0.586662	0.515870
	C228	C	0.078843	0.525868	0.515036
	O229	O	0.072403	0.516724	0.521326
	N230	N	0.069304	0.535346	0.507637
	H231	H	0.075356	0.544180	0.503387
	C232	C	0.223339	0.498624	0.554261
	O233	O	0.238302	0.502222	0.555131
	N234	N	0.215516	0.487435	0.560974
	H235	H	0.202576	0.486231	0.560436
	C236	C	0.205840	0.603542	0.485268
	O237	O	0.200667	0.618487	0.485059
	N238	N	0.220217	0.597219	0.479826
	H239	H	0.224374	0.584751	0.480892
	F240	F	0.350586	0.742193	0.804896
	C241	C	0.351072	0.743612	0.794456
	C242	C	0.362415	0.755171	0.790542
	F243	F	0.372129	0.764099	0.797438
	C244	C	0.364170	0.757775	0.779752
	C245	C	0.353216	0.748012	0.773202
	F246	F	0.353524	0.749577	0.762767
	C247	C	0.341909	0.736426	0.777113
	F248	F	0.332092	0.727615	0.770215
	C249	C	0.340440	0.733520	0.787889
	N250	N	0.378168	0.771879	0.765905
	C251	C	0.376703	0.769607	0.775798
	H252	H	0.384689	0.776052	0.781781
	N253	N	0.327515	0.717920	0.801587
	C254	C	0.328857	0.720659	0.791733
	H255	H	0.321676	0.713512	0.785651
	F256	F	0.185516	0.586348	0.892764
	C257	C	0.195943	0.575557	0.898163
	C258	C	0.188818	0.566473	0.906156
	F259	F	0.172043	0.569086	0.907940
	C260	C	0.198368	0.554708	0.912334
	C261	C	0.215856	0.553078	0.909908
	F262	F	0.226316	0.542402	0.915357
	C263	C	0.222980	0.562148	0.901915
	F264	F	0.239766	0.559545	0.900177
	C265	C	0.213360	0.573694	0.895619
	N266	N	0.199315	0.533892	0.925967
	C267	C	0.190450	0.544874	0.920541
	H268	H	0.176689	0.547371	0.921565
	N269	N	0.212176	0.592901	0.881133
	C270	C	0.221195	0.582798	0.887059
	H271	H	0.234859	0.579757	0.886041
	F272	F	0.563844	0.242464	0.857946
	C273	C	0.569106	0.228995	0.851846
	C274	C	0.558120	0.223698	0.843749
	F275	F	0.543418	0.232877	0.842289
	C276	C	0.561693	0.209177	0.837183
	C277	C	0.577247	0.200265	0.839539
	F278	F	0.581933	0.186053	0.833919
	C279	C	0.588284	0.205666	0.847584
	F280	F	0.602898	0.196401	0.849173
	C281	C	0.585025	0.220566	0.853899
	N282	N	0.552776	0.190171	0.822981
	C283	C	0.549826	0.203900	0.828679
	H284	H	0.538400	0.212330	0.827611
	N285	N	0.600873	0.241180	0.865173
	C286	C	0.597174	0.225661	0.862307
	H287	H	0.603915	0.214801	0.866168
	F288	F	0.482559	-0.027130	0.766250
	C289	C	0.478159	-0.016203	0.758611
	C290	C	0.479167	0.001395	0.760931
	F291	F	0.484468	0.006259	0.770618
	C292	C	0.474893	0.014168	0.753613
	C293	C	0.469441	0.007713	0.743713
	F294	F	0.464964	0.018662	0.736101
	C295	C	0.468441	-0.009892	0.741391
	F296	F	0.463093	-0.014765	0.731717
	C297	C	0.472756	-0.022664	0.748702
	N298	N	0.472302	0.044403	0.749638
	C299	C	0.476165	0.032667	0.756317
	H300	H	0.480653	0.035698	0.764340
	N301	N	0.475590	-0.052771	0.752790
	C302	C	0.471624	-0.041197	0.746034
	H303	H	0.467209	-0.044356	0.738016
	F304	F	-0.008631	0.561011	0.481845
	C305	C	-0.001397	0.550676	0.489062
	C306	C	0.016216	0.551456	0.490699
	F307	F	0.024777	0.562461	0.484978
	C308	C	0.025318	0.541303	0.498045
	C309	C	0.015174	0.530129	0.503579
	F310	F	0.022431	0.519716	0.510747
	C311	C	-0.002442	0.529354	0.501944
	F312	F	-0.010995	0.518297	0.507633
	C313	C	-0.011564	0.539604	0.494656
	N314	N	0.052185	0.533360	0.506478
	C315	C	0.043916	0.542577	0.499691
	H316	H	0.050103	0.551903	0.494835
	N317	N	-0.038475	0.548117	0.486511
	C318	C	-0.030224	0.538656	0.493178
	H319	H	-0.036475	0.529473	0.498100
	F320	F	0.293361	0.607148	0.448613
	C321	C	0.280653	0.615446	0.453815
	C322	C	0.268644	0.605415	0.458454
	F323	F	0.270556	0.588158	0.457432
	C324	C	0.254798	0.612553	0.464189
	C325	C	0.253691	0.630741	0.464548
	F326	F	0.240784	0.639032	0.469568
	C327	C	0.265755	0.640774	0.459956
	F328	F	0.263712	0.658033	0.460849
	C329	C	0.279945	0.633628	0.454546
	N330	N	0.230100	0.608128	0.474660
	C331	C	0.242901	0.601599	0.469527
	H332	H	0.245860	0.587666	0.468967
	N333	N	0.305930	0.637882	0.445297
	C334	C	0.293070	0.644519	0.450324
	H335	H	0.291264	0.658445	0.451894
	C336	C	0.475727	0.899212	0.752699
	C337	C	0.460477	0.894977	0.747391
	C338	C	0.458059	0.878092	0.743686
	C339	C	0.470700	0.865067	0.745328
	C340	C	0.485805	0.869309	0.750810
	C341	C	0.488263	0.886194	0.754480
	C342	C	0.468035	0.847000	0.741455
	N343	N	0.479903	0.839446	0.735195
	C344	C	0.477036	0.823162	0.731907
	N345	N	0.463288	0.814436	0.734556
	C346	C	0.452041	0.822936	0.740824
	N347	N	0.453898	0.839221	0.744438
	C348	C	0.489748	0.814136	0.724905
	C349	C	0.507353	0.814300	0.727311
	C350	C	0.519149	0.805657	0.720784
	C351	C	0.513591	0.796552	0.711765
	C352	C	0.496040	0.796615	0.709226
	C353	C	0.484263	0.805287	0.715746
	C354	C	0.436624	0.813660	0.743906
	C355	C	0.438113	0.800237	0.751066
	C356	C	0.423761	0.791289	0.753817
	C357	C	0.407598	0.795674	0.749483
	C358	C	0.406103	0.808967	0.742263
	C359	C	0.420455	0.817924	0.739531
	H360	H	0.446313	0.874568	0.739637
	H361	H	0.450454	0.904842	0.746329
	H362	H	0.499829	0.889506	0.758836
	H363	H	0.495419	0.859153	0.752140
	H364	H	0.511523	0.821415	0.734286
	H365	H	0.532789	0.805921	0.722544
	H366	H	0.491691	0.790236	0.702023
	H367	H	0.470666	0.805433	0.713893
	H368	H	0.450732	0.796876	0.754219
	H369	H	0.425146	0.780500	0.759035
	H370	H	0.393610	0.811982	0.738768
	H371	H	0.419474	0.828175	0.733930
	C372	C	0.478672	0.917326	0.756872
	O373	O	0.485586	0.920118	0.765330
	N374	N	0.474239	0.930362	0.749840
	H375	H	0.470384	0.926936	0.742404
	C376	C	0.526548	0.787194	0.704816
	O377	O	0.540545	0.792899	0.703409
	N378	N	0.521473	0.770900	0.701164
	H379	H	0.511327	0.765533	0.704639
	C380	C	0.391973	0.785825	0.752072
	O381	O	0.381103	0.782309	0.745495
	N382	N	0.390334	0.782527	0.762730
	H383	H	0.398616	0.788035	0.768016
	C384	C	0.080824	0.478095	0.978474
	C385	C	0.091410	0.478590	0.987488
	C386	C	0.109065	0.475726	0.986676
	C387	C	0.116519	0.472548	0.976852
	C388	C	0.105910	0.472506	0.967834
	C389	C	0.088252	0.475271	0.968640
	C390	C	0.135364	0.469325	0.976003
	N391	N	0.143844	0.478580	0.969173
	C392	C	0.160769	0.475156	0.968606
	N393	N	0.169224	0.463284	0.974392
	C394	C	0.159792	0.454601	0.981015
	N395	N	0.142854	0.457260	0.982103
	C396	C	0.170781	0.484947	0.961073
	C397	C	0.182838	0.476278	0.954621
	C398	C	0.192397	0.485374	0.947658
	C399	C	0.189994	0.503308	0.946901
	C400	C	0.177990	0.512054	0.953340
	C401	C	0.168518	0.502946	0.960367
	C402	C	0.168758	0.441212	0.987470
	C403	C	0.172522	0.444456	0.998140
	C404	C	0.181285	0.432017	1.004093
	C405	C	0.186485	0.416091	0.999456
	C406	C	0.182411	0.412690	0.988863
	C407	C	0.173670	0.425127	0.982921
	H408	H	0.117414	0.475950	0.993563
	H409	H	0.085809	0.481370	0.995086
	H410	H	0.079997	0.475387	0.961688
	H411	H	0.111779	0.470248	0.960272
	H412	H	0.184698	0.462425	0.955295
	H413	H	0.201797	0.478727	0.942694
	H414	H	0.176533	0.526009	0.953092
	H415	H	0.159301	0.509521	0.965459
	H416	H	0.168482	0.456859	1.001565
	H417	H	0.183904	0.434525	1.012368
	H418	H	0.186364	0.400271	0.985370
	H419	H	0.170642	0.422721	0.974694
	C420	C	0.061657	0.480910	0.979118
	O421	O	0.053481	0.489417	0.972797
	N422	N	0.054112	0.471633	0.986951
	H423	H	0.061644	0.463317	0.991236
	C424	C	0.200477	0.512625	0.939174
	O425	O	0.215406	0.508652	0.937661
	N426	N	0.191286	0.524917	0.933277
	H427	H	0.178398	0.526434	0.934241
	C428	C	0.196634	0.402556	1.005476
	O429	O	0.193700	0.387298	1.004572
	N430	N	0.209713	0.409030	1.011958
	H431	H	0.212135	0.421870	1.011759
	C432	C	0.674722	0.315025	0.932159
	C433	C	0.658899	0.322683	0.935017
	C434	C	0.643660	0.315530	0.931421
	C435	C	0.643891	0.300469	0.925023
	C436	C	0.659745	0.292713	0.922297
	C437	C	0.675000	0.299897	0.925857
	C438	C	0.627527	0.292722	0.921407
	N439	N	0.616290	0.288892	0.928747
	C440	C	0.601640	0.282040	0.925224
	N441	N	0.597857	0.279079	0.915034
	C442	C	0.609792	0.283248	0.908189
	N443	N	0.624803	0.290091	0.911068
	C444	C	0.588844	0.277598	0.933133
	C445	C	0.593222	0.265810	0.940987
	C446	C	0.581342	0.261811	0.948480
	C447	C	0.564863	0.269530	0.948283
	C448	C	0.560363	0.281179	0.940385
	C449	C	0.572248	0.285140	0.932877
	C450	C	0.606098	0.280187	0.896764
	C451	C	0.595238	0.267022	0.893313
	C452	C	0.591673	0.264215	0.882648
	C453	C	0.599025	0.274418	0.875153
	C454	C	0.609706	0.287700	0.878565
	C455	C	0.613220	0.290537	0.889232
	H456	H	0.631337	0.321193	0.933634
	H457	H	0.658554	0.334056	0.940180
	H458	H	0.687290	0.293810	0.923895
	H459	H	0.659797	0.281006	0.917437
	H460	H	0.606016	0.259954	0.941071
	H461	H	0.584598	0.252602	0.954525
	H462	H	0.547412	0.286650	0.939958
	H463	H	0.568942	0.293935	0.926640
	H464	H	0.589655	0.259125	0.899135
	H465	H	0.583060	0.254193	0.880087
	H466	H	0.615269	0.295638	0.872737
	H467	H	0.621580	0.300704	0.891889
	C468	C	0.691342	0.322380	0.936171
	O469	O	0.703735	0.313186	0.938319
	N470	N	0.691548	0.340450	0.936223
	H471	H	0.682656	0.347006	0.931730
	C472	C	0.552444	0.265376	0.956688
	O473	O	0.550932	0.250797	0.959685
	N474	N	0.544212	0.279902	0.961337
	H475	H	0.547467	0.291853	0.959069
	C476	C	0.595460	0.271744	0.863559
	O477	O	0.593827	0.283756	0.857627
	N478	N	0.594656	0.254718	0.859695
	H479	H	0.592510	0.253466	0.851771
	C480	C	0.816646	0.495283	0.447724
	C481	C	0.824338	0.509985	0.444051
	C482	C	0.831448	0.521950	0.451112
	C483	C	0.831196	0.519365	0.461956
	C484	C	0.823869	0.504418	0.465582
	C485	C	0.816721	0.492463	0.458527
	C486	C	0.838476	0.532382	0.469466
	N487	N	0.827505	0.541902	0.475410
	C488	C	0.834463	0.553716	0.481963
	N489	N	0.851349	0.556217	0.482831
	C490	C	0.861428	0.546195	0.476578
	N491	N	0.855510	0.534093	0.469808
	C492	C	0.822684	0.564811	0.488534
	C493	C	0.809346	0.574580	0.483790
	C494	C	0.798254	0.584984	0.489863
	C495	C	0.800224	0.585831	0.500809
	C496	C	0.813714	0.576333	0.505580
	C497	C	0.824803	0.565899	0.499490
	C498	C	0.880252	0.548760	0.477136
	C499	C	0.891912	0.534573	0.477566
	C500	C	0.909523	0.537024	0.478024
	C501	C	0.915826	0.553769	0.478147
	C502	C	0.904238	0.567929	0.477487
	C503	C	0.886649	0.565468	0.477037
	H504	H	0.837448	0.533373	0.448419
	H505	H	0.824825	0.511930	0.435675
	H506	H	0.811129	0.480821	0.461269
	H507	H	0.823895	0.502461	0.473958
	H508	H	0.807848	0.573740	0.475329
	H509	H	0.788017	0.592685	0.486221
	H510	H	0.815802	0.577565	0.513996
	H511	H	0.835404	0.558622	0.503024
	H512	H	0.886842	0.521724	0.477440
	H513	H	0.918411	0.525960	0.478096
	H514	H	0.909232	0.580830	0.477416
	H515	H	0.877597	0.576361	0.476644
	C516	C	0.808528	0.482378	0.440216
	O517	O	0.810008	0.466936	0.441470
	N518	N	0.797970	0.490054	0.432533
	H519	H	0.794777	0.502929	0.433414
	C520	C	0.787974	0.597315	0.507085
	O521	O	0.782930	0.611346	0.504057
	N522	N	0.781746	0.589841	0.516048
	H523	H	0.785456	0.577427	0.517649
	C524	C	0.934781	0.556956	0.478573
	O525	O	0.941070	0.567793	0.473303
	N526	N	0.944305	0.546706	0.485590
	H527	H	0.937966	0.539047	0.490473
	C528	C	0.410520	0.739456	0.396147
	C529	C	0.422719	0.727059	0.399598
	C530	C	0.419662	0.717426	0.408394
	C531	C	0.404280	0.719789	0.413832
	C532	C	0.391879	0.731819	0.410156
	C533	C	0.394954	0.741514	0.401374
	C534	C	0.401478	0.709842	0.423440
	N535	N	0.412485	0.712202	0.431550
	C536	C	0.409863	0.703024	0.440095
	N537	N	0.397160	0.691937	0.440833
	C538	C	0.386711	0.690341	0.432378
	N539	N	0.388371	0.699100	0.423541
	C540	C	0.421866	0.705117	0.449239
	C541	C	0.423412	0.721243	0.454416
	C542	C	0.434787	0.723198	0.462904
	C543	C	0.444756	0.709061	0.466438
	C544	C	0.443416	0.692971	0.461198
	C545	C	0.432047	0.691033	0.452702
	C546	C	0.372560	0.678017	0.432977
	C547	C	0.355432	0.683423	0.431219
	C548	C	0.342230	0.671904	0.432139
	C549	C	0.345938	0.654735	0.434862
	C550	C	0.363050	0.649205	0.436361
	C551	C	0.376215	0.660716	0.435449
	H552	H	0.429030	0.707937	0.411233
	H553	H	0.434540	0.724957	0.395365
	H554	H	0.385388	0.750769	0.398450
	H555	H	0.379924	0.733319	0.414285
	H556	H	0.415741	0.732108	0.451563
	H557	H	0.436245	0.735700	0.466832
	H558	H	0.451662	0.682169	0.463568
	H559	H	0.430909	0.678729	0.448532
	H560	H	0.352812	0.696736	0.429148
	H561	H	0.329067	0.676124	0.430605
	H562	H	0.365806	0.635851	0.438367
	H563	H	0.389462	0.656620	0.436750
	C564	C	0.413926	0.750411	0.386845
	O565	O	0.402774	0.754260	0.380506
	N566	N	0.430421	0.756930	0.387024
	H567	H	0.437598	0.755961	0.393795
	C568	C	0.457161	0.711604	0.475539
	O569	O	0.465114	0.724710	0.476785
	N570	N	0.457539	0.698405	0.482814
	H571	H	0.448883	0.688887	0.481982
	C572	C	0.332115	0.641986	0.436478
	O573	O	0.333414	0.627101	0.433271
	N574	N	0.318056	0.648599	0.442116
	H575	H	0.318207	0.661037	0.444957
	F576	F	0.577112	0.758916	0.657565
	C577	C	0.566837	0.751371	0.664236
	C578	C	0.559241	0.761807	0.672026
	F579	F	0.562670	0.778676	0.672326
	C580	C	0.548136	0.755456	0.679435
	C581	C	0.545568	0.737578	0.678465
	F582	F	0.535376	0.729987	0.685165
	C583	C	0.553138	0.727152	0.670668
	F584	F	0.549700	0.710284	0.670372
	C585	C	0.563985	0.733561	0.663135
	N586	N	0.529342	0.760662	0.693868
	C587	C	0.539843	0.766810	0.687435
	H588	H	0.542910	0.780453	0.687089
	N589	N	0.580909	0.728467	0.647774
	C590	C	0.571396	0.722317	0.654774
	H591	H	0.567623	0.708846	0.654889
	F592	F	0.281976	0.399500	0.046327
	C593	C	0.270616	0.391147	0.040217
	C594	C	0.257742	0.401042	0.035336
	F595	F	0.257538	0.418233	0.037045
	C596	C	0.245136	0.393843	0.028683
	C597	C	0.246224	0.375695	0.027632
	F598	F	0.234657	0.367320	0.021691
	C599	C	0.259144	0.365804	0.032477
	F600	F	0.259208	0.348591	0.030892
	C601	C	0.272096	0.373059	0.038838
	N602	N	0.220661	0.398116	0.017145
	C603	C	0.232260	0.404727	0.023177
	H604	H	0.233419	0.418702	0.024439
	N605	N	0.297939	0.369134	0.049204
	C606	C	0.286168	0.362395	0.043366
	H607	H	0.286041	0.348565	0.041296
	F608	F	-0.016890	0.445331	0.015783
	C609	C	-0.011958	0.454987	0.007904
	C610	C	0.005455	0.455004	0.005860
	F611	F	0.016129	0.445390	0.011877
	C612	C	0.012256	0.464573	-0.002184
	C613	C	0.000013	0.474312	-0.007972
	F614	F	0.004978	0.484066	-0.015796
	C615	C	-0.017410	0.474265	-0.005943
	F616	F	-0.028083	0.483937	-0.011926
	C617	C	-0.024225	0.464570	0.002040
	N618	N	0.036968	0.472936	-0.011560
	C619	C	0.030712	0.464103	-0.004241
	H620	H	0.038639	0.455710	0.000815
	N621	N	-0.048801	0.455731	0.011299
	C622	C	-0.042729	0.464548	0.003918
	H623	H	-0.050808	0.472424	-0.001349
	F624	F	0.488520	0.321871	-0.001862
	C625	C	0.494566	0.306525	-0.005599
	C626	C	0.506187	0.306634	-0.013709
	F627	F	0.510543	0.322013	-0.017239
	C628	C	0.513498	0.291452	-0.018293
	C629	C	0.508043	0.276051	-0.014033
	F630	F	0.514114	0.260748	-0.017796
	C631	C	0.496417	0.275937	-0.005915
	F632	F	0.492104	0.260562	-0.002374
	C633	C	0.489150	0.291137	-0.001315
	N634	N	0.532747	0.278191	-0.030942
	C635	C	0.525879	0.292044	-0.026792
	H636	H	0.528909	0.305016	-0.029251
	N637	N	0.470744	0.304881	0.011436
	C638	C	0.476841	0.290736	0.007258
	H639	H	0.473878	0.277792	0.009751
	F640	F	0.721719	0.378310	0.943076
	C641	C	0.728918	0.371526	0.951734
	C642	C	0.740652	0.381435	0.957363
	F643	F	0.743980	0.397076	0.953781
	C644	C	0.748964	0.375843	0.966607
	C645	C	0.744718	0.359199	0.969612
	F646	F	0.751995	0.352383	0.978232
	C647	C	0.733036	0.349260	0.963965
	F648	F	0.729790	0.333601	0.967538
	C649	C	0.724476	0.355002	0.954831
	N650	N	0.767819	0.381872	0.981300
	C651	C	0.760933	0.386787	0.972583
	H652	H	0.763275	0.399327	0.969216
	N653	N	0.703275	0.350287	0.941247
	C654	C	0.711822	0.344400	0.949176
	H655	H	0.709964	0.331742	0.952507
	F656	F	0.764615	0.480474	0.410778
	C657	C	0.771494	0.465322	0.407280
	C658	C	0.763351	0.457157	0.398804
	F659	F	0.749262	0.465006	0.394711
	C660	C	0.769329	0.441295	0.394363
	C661	C	0.784131	0.434194	0.399289
	F662	F	0.790954	0.419035	0.395773
	C663	C	0.792264	0.442352	0.407786
	F664	F	0.806375	0.434548	0.411874
	C665	C	0.786415	0.458331	0.412132
	N666	N	0.766614	0.419138	0.380874
	C667	C	0.760608	0.433184	0.385250
	H668	H	0.749252	0.440414	0.382372
	N669	N	0.790035	0.481919	0.424413
	C670	C	0.795349	0.466946	0.421005
	H671	H	0.806699	0.459893	0.424018
	F672	F	0.749071	0.625205	0.526709
	C673	C	0.743527	0.616041	0.534646
	C674	C	0.730356	0.623404	0.540638
	F675	F	0.724056	0.639107	0.538075
	C676	C	0.723355	0.615089	0.549137
	C677	C	0.731134	0.598887	0.551325
	F678	F	0.725817	0.589906	0.559401
	C679	C	0.744295	0.591508	0.545320
	F680	F	0.750783	0.575925	0.547976
	C681	C	0.750915	0.599582	0.536612
	N682	N	0.702208	0.615151	0.562639
	C683	C	0.708831	0.622845	0.554963
	H684	H	0.703925	0.635383	0.552205
	N685	N	0.769884	0.598511	0.521984
	C686	C	0.764235	0.591133	0.530072
	H687	H	0.768695	0.578231	0.532454
	F688	F	0.494596	0.711229	0.502414
	C689	C	0.493585	0.697511	0.508517
	C690	C	0.505171	0.696180	0.516906
	F691	F	0.516558	0.708657	0.518336
	C692	C	0.505471	0.682397	0.523857
	C693	C	0.492959	0.670072	0.521709
	F694	F	0.491920	0.656389	0.527835
	C695	C	0.481358	0.671414	0.513326
	F696	F	0.469929	0.658974	0.511917
	C697	C	0.481164	0.685114	0.506316
	N698	N	0.518498	0.668437	0.538802
	C699	C	0.518049	0.681223	0.532563
	H700	H	0.526987	0.691808	0.533278
	N701	N	0.469035	0.698461	0.490927
	C702	C	0.468918	0.686058	0.497424
	H703	H	0.459950	0.675503	0.496694
	F704	F	0.462095	0.785215	0.373568
	C705	C	0.455396	0.784096	0.363810
	C706	C	0.463720	0.792505	0.356001
	F707	F	0.477815	0.801118	0.358748
	C708	C	0.458074	0.792291	0.345459
	C709	C	0.443089	0.783074	0.343456
	F710	F	0.436397	0.782133	0.333702
	C711	C	0.434778	0.774607	0.351268
	F712	F	0.420664	0.766044	0.348531
	C713	C	0.440598	0.774607	0.361781
	N714	N	0.462420	0.801049	0.327712
	C715	C	0.467513	0.800946	0.337378
	H716	H	0.479193	0.807211	0.340158
	N717	N	0.437866	0.765461	0.379380
	C718	C	0.431904	0.765249	0.369920
	H719	H	0.420783	0.758123	0.367136
	C720	C	0.592294	0.691522	0.629502
	C721	C	0.583935	0.697649	0.620435
	C722	C	0.586616	0.689315	0.610735
	C723	C	0.597458	0.674513	0.609878
	C724	C	0.605617	0.668300	0.619000
	C725	C	0.603039	0.676696	0.628697
	C726	C	0.599821	0.665362	0.599518
	N727	N	0.586340	0.665167	0.592802
	C728	C	0.588784	0.656758	0.583576
	N729	N	0.603662	0.648844	0.580870
	C730	C	0.616490	0.649617	0.588027
	N731	N	0.615151	0.657808	0.597411
	C732	C	0.574181	0.656249	0.575870
	C733	C	0.557768	0.652079	0.579042
	C734	C	0.544131	0.651621	0.571821
	C735	C	0.546597	0.655338	0.561284
	C736	C	0.563041	0.659187	0.558034
	C737	C	0.576659	0.659691	0.565269
	C738	C	0.633126	0.640858	0.585244
	C739	C	0.647852	0.650414	0.584013
	C740	C	0.663247	0.642197	0.581030
	C741	C	0.664144	0.624252	0.579158
	C742	C	0.649626	0.614617	0.580736
	C743	C	0.634243	0.622840	0.583689
	H744	H	0.580113	0.693866	0.603700
	H745	H	0.575118	0.708746	0.621002
	H746	H	0.609148	0.671760	0.635777
	H747	H	0.613840	0.656777	0.618337
	H748	H	0.555968	0.649312	0.587218
	H749	H	0.531455	0.648225	0.574213
	H750	H	0.565239	0.661214	0.549800
	H751	H	0.589471	0.662453	0.562860
	H752	H	0.646873	0.664267	0.585434
	H753	H	0.674640	0.649609	0.580235
	H754	H	0.650544	0.600700	0.579446
	H755	H	0.622838	0.615567	0.584724
	C756	C	0.589198	0.700058	0.640136
	O757	O	0.589637	0.691842	0.648102
	N758	N	0.587387	0.718099	0.640014
	H759	H	0.591866	0.724361	0.633735
	C760	C	0.531662	0.654576	0.553601
	O761	O	0.520807	0.643821	0.554089
	N762	N	0.530610	0.668138	0.546575
	H763	H	0.538963	0.677914	0.547498
	C764	C	0.680383	0.614978	0.575551
	O765	O	0.685735	0.601657	0.579402
	N766	N	0.688356	0.622859	0.567308
	H767	H	0.682494	0.633521	0.564136
	C768	C	0.415040	0.280186	0.105146
	C769	C	0.418899	0.271020	0.095793
	C770	C	0.413966	0.277772	0.086120
	C771	C	0.405338	0.293945	0.085544
	C772	C	0.401710	0.303159	0.094928
	C773	C	0.406522	0.296367	0.104603
	C774	C	0.400557	0.301407	0.075179
	N775	N	0.410770	0.297497	0.067029
	C776	C	0.406208	0.304619	0.057875
	N777	N	0.392370	0.315155	0.056575
	C778	C	0.382872	0.318448	0.065108
	N779	N	0.386436	0.311762	0.074527
	C780	C	0.417184	0.300849	0.048607
	C781	C	0.410210	0.293645	0.039311
	C782	C	0.420385	0.290515	0.030555
	C783	C	0.437723	0.294561	0.030902
	C784	C	0.444847	0.301383	0.040254
	C785	C	0.434649	0.304532	0.049004
	C786	C	0.367628	0.330389	0.063953
	C787	C	0.350976	0.324550	0.065061
	C788	C	0.336775	0.335755	0.063669
	C789	C	0.339004	0.353030	0.061137
	C790	C	0.355623	0.358979	0.060268
	C791	C	0.369787	0.347775	0.061635
	H792	H	0.416997	0.270850	0.078849
	H793	H	0.426005	0.258760	0.096075
	H794	H	0.403922	0.303606	0.111849
	H795	H	0.395206	0.315711	0.094476
	H796	H	0.396737	0.290784	0.039090
	H797	H	0.415074	0.284877	0.023361
	H798	H	0.458427	0.303810	0.040723
	H799	H	0.439953	0.309726	0.056302
	H800	H	0.349526	0.311162	0.067002
	H801	H	0.323961	0.331226	0.064684
	H802	H	0.357213	0.372406	0.058390
	H803	H	0.382686	0.352172	0.060824
	C804	C	0.420615	0.273474	0.115736
	O805	O	0.424179	0.283207	0.123026
	N806	N	0.419812	0.255541	0.116615
	H807	H	0.412552	0.248796	0.111267
	C808	C	0.448401	0.291277	0.021257
	O809	O	0.446393	0.278768	0.015479
	N810	N	0.459251	0.304724	0.019181
	H811	H	0.457549	0.316213	0.023246
	C812	C	0.324069	0.365443	0.059082
	O813	O	0.323718	0.380181	0.062589
	N814	N	0.311027	0.358690	0.052681
	H815	H	0.312611	0.346431	0.049634
	C816	C	0.907575	0.448098	0.020922
	C817	C	0.898602	0.464035	0.020158
	C818	C	0.880765	0.464890	0.020639
	C819	C	0.871551	0.449913	0.022040
	C820	C	0.880631	0.434057	0.023013
	C821	C	0.898441	0.433173	0.022481
	C822	C	0.852503	0.450786	0.022659
	N823	N	0.845169	0.463341	0.028704
	C824	C	0.828021	0.463463	0.029138
	N825	N	0.818235	0.452022	0.023935
	C826	C	0.826564	0.439892	0.018059
	N827	N	0.843664	0.438870	0.017179
	C828	C	0.819270	0.476983	0.035847
	C829	C	0.814309	0.493094	0.031793
	C830	C	0.805993	0.505649	0.038099
	C831	C	0.802362	0.502304	0.048547
	C832	C	0.807574	0.486324	0.052676
	C833	C	0.815907	0.473785	0.046370
	C834	C	0.816227	0.426741	0.012260
	C835	C	0.800575	0.431460	0.007353
	C836	C	0.790778	0.419102	0.002079
	C837	C	0.796515	0.401737	0.001540
	C838	C	0.812040	0.396952	0.006515
	C839	C	0.821811	0.409311	0.011787
	H840	H	0.873654	0.477113	0.020142
	H841	H	0.905611	0.475744	0.019363
	H842	H	0.905521	0.420967	0.023348
	H843	H	0.873479	0.422576	0.024223
	H844	H	0.817192	0.495518	0.023709
	H845	H	0.802290	0.518209	0.035051
	H846	H	0.805498	0.483927	0.060882
	H847	H	0.820086	0.461402	0.049436
	H848	H	0.796189	0.444874	0.007956
	H849	H	0.778391	0.422794	-0.001300
	H850	H	0.816192	0.383422	0.006275
	H851	H	0.833802	0.405685	0.015675
	C852	C	0.926861	0.446650	0.020470
	O853	O	0.935261	0.436952	0.026020
	N854	N	0.934001	0.456081	0.012552
	H855	H	0.926034	0.462584	0.007483
	C856	C	0.793302	0.516061	0.055237
	O857	O	0.795840	0.531299	0.054321
	N858	N	0.780774	0.509665	0.061636
	H859	H	0.776828	0.497361	0.060172
	C860	C	0.786035	0.387960	-0.003867
	O861	O	0.785346	0.373530	-0.000467
	N862	N	0.778505	0.392685	-0.013462
	H863	H	0.781413	0.404221	-0.016512
	C864	C	0.675182	0.336547	0.306182
	C865	C	0.689928	0.339690	0.300549
	C866	C	0.700142	0.353503	0.303469
	C867	C	0.695964	0.364329	0.312132
	C868	C	0.681512	0.360762	0.317954
	C869	C	0.671267	0.346964	0.315031
	C870	C	0.706445	0.379599	0.314873
	N871	N	0.710205	0.389955	0.307020
	C872	C	0.719330	0.403821	0.309683
	N873	N	0.724710	0.407599	0.319510
	C874	C	0.720460	0.396573	0.326903
	N875	N	0.711352	0.382414	0.324910
	C876	C	0.723533	0.415792	0.301238
	C877	C	0.733289	0.409930	0.292641
	C878	C	0.736978	0.421125	0.284682
	C879	C	0.730892	0.438356	0.285121
	C880	C	0.721451	0.444367	0.293808
	C881	C	0.717783	0.433166	0.301769
	C882	C	0.726018	0.400641	0.337938
	C883	C	0.742053	0.407726	0.340090
	C884	C	0.747061	0.412208	0.350344
	C885	C	0.736134	0.409625	0.358706
	C886	C	0.720131	0.402542	0.356595
	C887	C	0.715130	0.398084	0.346334
	H888	H	0.711456	0.356227	0.299119
	H889	H	0.693340	0.331295	0.293908
	H890	H	0.660116	0.344098	0.319525
	H891	H	0.678548	0.368966	0.324745
	H892	H	0.737858	0.396564	0.292368
	H893	H	0.744654	0.416735	0.278058
	H894	H	0.717440	0.457896	0.294446
	H895	H	0.710619	0.437609	0.308575
	H896	H	0.750325	0.409804	0.333559
	H897	H	0.759296	0.418081	0.351835
	H898	H	0.711714	0.400606	0.363096
	H899	H	0.702785	0.392587	0.344652
	C900	C	0.663496	0.322179	0.302828
	O901	O	0.657108	0.313036	0.309120
	N902	N	0.659559	0.321902	0.292062
	H903	H	0.663106	0.332105	0.287775
	C904	C	0.734853	0.450171	0.276343
	O905	O	0.748688	0.449795	0.272186
	N906	N	0.720779	0.460222	0.272825
	H907	H	0.709111	0.458377	0.275970
	C908	C	0.741043	0.414806	0.369849
	O909	O	0.730374	0.419694	0.376160
	N910	N	0.758413	0.412110	0.372419
	H911	H	0.765564	0.403538	0.367939
	C912	C	0.534259	0.919785	0.276529
	C913	C	0.518730	0.911746	0.274330
	C914	C	0.517780	0.893829	0.274857
	C915	C	0.532236	0.883624	0.277721
	C916	C	0.547663	0.891773	0.280090
	C917	C	0.548644	0.909657	0.279523
	C918	C	0.531259	0.864509	0.278454
	N919	N	0.518643	0.858274	0.284088
	C920	C	0.518464	0.841005	0.284733
	N921	N	0.529946	0.830133	0.280094
	C922	C	0.542129	0.837415	0.274602
	N923	N	0.543203	0.854538	0.273548
	C924	C	0.504985	0.833408	0.291125
	C925	C	0.497076	0.818174	0.287736
	C926	C	0.484826	0.810833	0.293865
	C927	C	0.480201	0.818556	0.303512
	C928	C	0.487842	0.833936	0.306856
	C929	C	0.500103	0.841259	0.300721
	C930	C	0.555314	0.825790	0.269495
	C931	C	0.560211	0.828265	0.259127
	C932	C	0.572623	0.817385	0.254414
	C933	C	0.580367	0.803754	0.259994
	C934	C	0.575665	0.801397	0.270386
	C935	C	0.563270	0.812266	0.275081
	H936	H	0.505859	0.887422	0.273269
	H937	H	0.507386	0.919557	0.272388
	H938	H	0.560495	0.916031	0.281474
	H939	H	0.558719	0.883839	0.282402
	H940	H	0.500772	0.812243	0.280285
	H941	H	0.478628	0.799092	0.291259
	H942	H	0.483798	0.840391	0.314094
	H943	H	0.506027	0.853198	0.303174
	H944	H	0.554165	0.838900	0.254944
	H945	H	0.576573	0.819671	0.246489
	H946	H	0.581806	0.790895	0.274677
	H947	H	0.559477	0.810440	0.283087
	C948	C	0.535791	0.939130	0.276138
	O949	O	0.544287	0.947135	0.282561
	N950	N	0.528036	0.946720	0.267333
	H951	H	0.522532	0.938975	0.261711
	C952	C	0.467442	0.809902	0.310185
	O953	O	0.454894	0.803092	0.306434
	N954	N	0.472243	0.809048	0.320790
	H955	H	0.483811	0.813669	0.323133
	C956	C	0.593687	0.791495	0.255212
	O957	O	0.606161	0.786374	0.260197
	N958	N	0.590410	0.786358	0.244772
	H959	H	0.579029	0.790017	0.241315
	F960	F	0.427396	0.219249	0.137017
	C961	C	0.440736	0.226342	0.142090
	C962	C	0.448133	0.217394	0.150437
	F963	F	0.441458	0.202316	0.152868
	C964	C	0.462190	0.223440	0.156356
	C965	C	0.468187	0.239361	0.153170
	F966	F	0.481532	0.246455	0.158226
	C967	C	0.460808	0.248298	0.144822
	F968	F	0.467566	0.263330	0.142385
	C969	C	0.446762	0.242232	0.138892
	N970	N	0.482687	0.219494	0.170460
	C971	C	0.469862	0.213714	0.165117
	H972	H	0.463959	0.201464	0.166721
	N973	N	0.426603	0.246233	0.124596
	C974	C	0.439239	0.252017	0.130108
	H975	H	0.445536	0.264083	0.128596
	F976	F	0.745173	0.522968	0.081058
	C977	C	0.752551	0.536952	0.085336
	C978	C	0.743921	0.545883	0.093359
	F979	F	0.728883	0.539881	0.096276
	C980	C	0.750341	0.560665	0.098516
	C981	C	0.766126	0.565882	0.094790
	F982	F	0.773450	0.579903	0.099056
	C983	C	0.774765	0.556943	0.086766
	F984	F	0.789815	0.562915	0.083854
	C985	C	0.768469	0.542003	0.081722
	N986	N	0.747422	0.582736	0.112054
	C987	C	0.741117	0.569599	0.107159
	H988	H	0.729094	0.563782	0.109179
	N989	N	0.772146	0.518564	0.069217
	C990	C	0.778000	0.532499	0.073410
	H991	H	0.790249	0.537951	0.071510
	F992	F	0.629665	0.303410	0.270778
	C993	C	0.627858	0.287772	0.274797
	C994	C	0.617565	0.276325	0.269200
	F995	F	0.610184	0.281685	0.260209
	C996	C	0.614646	0.259549	0.272528
	C997	C	0.622960	0.255257	0.282047
	F998	F	0.621092	0.239604	0.286006
	C999	C	0.633253	0.266726	0.287663
	F1000	F	0.640663	0.261370	0.296637
	C1001	C	0.636202	0.283489	0.284305
	N1002	N	0.601125	0.232305	0.269162
	C1003	C	0.603754	0.247804	0.266335
	H1004	H	0.598133	0.253142	0.259122
	N1005	N	0.649834	0.310475	0.286737
	C1006	C	0.647126	0.295506	0.290319
	H1007	H	0.652696	0.290477	0.297603
	F1008	F	0.679630	0.522341	0.240065
	C1009	C	0.694640	0.514456	0.242608
	C1010	C	0.694603	0.502342	0.250445
	F1011	F	0.679621	0.499377	0.254921
	C1012	C	0.709456	0.493161	0.253819
	C1013	C	0.724451	0.497237	0.248621
	F1014	F	0.739413	0.489303	0.251179
	C1015	C	0.724496	0.509366	0.240781
	F1016	F	0.739460	0.512272	0.236282
	C1017	C	0.709625	0.518539	0.237411
	N1018	N	0.722443	0.471798	0.265153
	C1019	C	0.708934	0.480396	0.262107
	H1020	H	0.696301	0.478685	0.265433
	N1021	N	0.696050	0.539212	0.226065
	C1022	C	0.709953	0.531386	0.229136
	H1023	H	0.722570	0.533204	0.225851
	F1024	F	0.628427	0.753700	0.238957
	C1025	C	0.623640	0.749649	0.229060
	C1026	C	0.633558	0.737202	0.223668
	F1027	F	0.647186	0.730089	0.228711
	C1028	C	0.629865	0.731751	0.213276
	C1029	C	0.615514	0.740234	0.208647
	F1030	F	0.610914	0.736336	0.198699
	C1031	C	0.605564	0.752661	0.214052
	F1032	F	0.592039	0.759920	0.208986
	C1033	C	0.609015	0.757798	0.224530
	N1034	N	0.636947	0.712911	0.198476
	C1035	C	0.640225	0.718034	0.207979
	H1036	H	0.650707	0.712342	0.212730
	N1037	N	0.601291	0.774969	0.239811
	C1038	C	0.597943	0.770480	0.230216
	H1039	H	0.586806	0.775591	0.225795
	F1040	F	0.537940	-0.004407	0.271600
	C1041	C	0.530431	0.000976	0.262673
	C1042	C	0.531167	0.018442	0.260541
	F1043	F	0.539328	0.028707	0.267520
	C1044	C	0.523825	0.025695	0.251444
	C1045	C	0.515403	0.013879	0.244710
	F1046	F	0.507732	0.019321	0.235847
	C1047	C	0.514686	-0.003599	0.246837
	F1048	F	0.506412	-0.013850	0.239904
	C1049	C	0.522255	-0.010897	0.255855
	N1050	N	0.518583	0.050798	0.240956
	C1051	C	0.525195	0.044145	0.249308
	H1052	H	0.532324	0.051690	0.255227
	N1053	N	0.528755	-0.036005	0.266048
	C1054	C	0.521667	-0.029492	0.257798
	H1055	H	0.514975	-0.037242	0.251784
	C1056	C	0.517696	0.094738	0.229907
	C1057	C	0.515421	0.106144	0.238551
	C1058	C	0.519225	0.123530	0.237816
	C1059	C	0.525162	0.129917	0.228411
	C1060	C	0.527024	0.118527	0.219711
	C1061	C	0.523270	0.101138	0.220445
	C1062	C	0.529437	0.148447	0.227674
	N1063	N	0.523178	0.157260	0.219439
	C1064	C	0.527532	0.173838	0.219062
	N1065	N	0.537466	0.181686	0.226334
	C1066	C	0.543161	0.171977	0.234323
	N1067	N	0.539437	0.155323	0.235294
	C1068	C	0.521107	0.184233	0.210056
	C1069	C	0.532685	0.191744	0.203422
	C1070	C	0.526773	0.201815	0.195128
	C1071	C	0.509171	0.204507	0.193234
	C1072	C	0.497543	0.197136	0.199893
	C1073	C	0.503477	0.187065	0.208204
	C1074	C	0.554298	0.180292	0.242506
	C1075	C	0.549890	0.196790	0.246680
	C1076	C	0.560489	0.204852	0.254117
	C1077	C	0.575749	0.196545	0.257534
	C1078	C	0.579999	0.179919	0.253579
	C1079	C	0.569411	0.171890	0.246117
	H1080	H	0.517634	0.132490	0.244437
	H1081	H	0.510531	0.101408	0.245786
	H1082	H	0.524517	0.092311	0.213713
	H1083	H	0.531308	0.123611	0.212425
	H1084	H	0.546266	0.189739	0.205015
	H1085	H	0.535685	0.207910	0.190094
	H1086	H	0.483925	0.199778	0.198776
	H1087	H	0.494693	0.181368	0.213467
	H1088	H	0.538151	0.203117	0.243883
	H1089	H	0.556888	0.217512	0.257384
	H1090	H	0.591751	0.173540	0.256362
	H1091	H	0.572648	0.159096	0.242937
	C1092	C	0.513954	0.075803	0.230500
	O1093	O	0.506913	0.067962	0.223357
	N1094	N	0.520701	0.067865	0.239470
	H1095	H	0.527922	0.074962	0.244636
	C1096	C	0.503321	0.215908	0.184352
	O1097	O	0.511118	0.228519	0.182087
	N1098	N	0.489304	0.210004	0.178438
	H1099	H	0.484538	0.198292	0.180013
	C1100	C	0.587815	0.205339	0.265210
	O1101	O	0.594352	0.197958	0.272614
	N1102	N	0.590938	0.222449	0.262851
	H1103	H	0.586186	0.227089	0.255933
	C1104	C	0.715937	0.596097	0.132630
	C1105	C	0.726008	0.592291	0.141554
	C1106	C	0.720570	0.597698	0.151507
	C1107	C	0.704845	0.606773	0.152801
	C1108	C	0.694730	0.610388	0.143852
	C1109	C	0.700204	0.605080	0.133887
	C1110	C	0.698833	0.611974	0.163505
	N1111	N	0.702518	0.601110	0.171336
	C1112	C	0.696847	0.606053	0.180856
	N1113	N	0.687949	0.620889	0.182813
	C1114	C	0.684743	0.630977	0.174554
	N1115	N	0.689989	0.627051	0.164791
	C1116	C	0.700477	0.594358	0.189769
	C1117	C	0.709434	0.600212	0.198763
	C1118	C	0.712610	0.589319	0.207154
	C1119	C	0.706795	0.572402	0.206758
	C1120	C	0.698133	0.566386	0.197702
	C1121	C	0.694980	0.577286	0.189308
	C1122	C	0.674628	0.647374	0.176494
	C1123	C	0.682320	0.661775	0.181277
	C1124	C	0.672642	0.676844	0.183570
	C1125	C	0.655056	0.677757	0.181124
	C1126	C	0.647457	0.663586	0.176065
	C1127	C	0.657132	0.648519	0.173796
	H1128	H	0.728180	0.594699	0.158460
	H1129	H	0.737942	0.584854	0.140719
	H1130	H	0.692287	0.607650	0.126974
	H1131	H	0.682548	0.617279	0.144880
	H1132	H	0.713780	0.613346	0.199003
	H1133	H	0.719655	0.593729	0.214093
	H1134	H	0.694285	0.553068	0.197150
	H1135	H	0.688409	0.572823	0.182226
	H1136	H	0.695870	0.660750	0.183214
	H1137	H	0.678692	0.687985	0.187170
	H1138	H	0.633879	0.664512	0.174102
	H1139	H	0.651358	0.637382	0.170028
	C1140	C	0.721310	0.589901	0.121805
	O1141	O	0.710888	0.585925	0.115053
	N1142	N	0.738892	0.590664	0.120065
	H1143	H	0.746056	0.598442	0.124902
	C1144	C	0.710227	0.560920	0.215998
	O1145	O	0.723467	0.561447	0.221108
	N1146	N	0.696224	0.551215	0.218610
	H1147	H	0.684530	0.554283	0.215290
	C1148	C	0.643973	0.693420	0.184117
	O1149	O	0.633373	0.699680	0.178135
	N1150	N	0.646802	0.699690	0.194379
	H1151	H	0.655190	0.692971	0.199099
