data_Molecule from CHK

_cell_length_a		96.002743
_cell_length_b		141.238143
_cell_length_c		133.613920
_cell_angle_alpha	89.722949
_cell_angle_beta	90.192049
_cell_angle_gamma	90.331946
_symmetry_space_group_name_H-M	'P 1'
_symmetry_Int_Tables_number		1

loop_
	_symmetry_equiv_pos_as_xyz
	x,y,z

loop_
	_atom_site_label
	_atom_site_type_symbol
	_atom_site_fract_x
	_atom_site_fract_y
	_atom_site_fract_z
	C0	C	0.068040	0.025161	0.455604
	C1	C	0.062709	0.028189	0.446324
	C2	C	0.071529	0.030592	0.438471
	C3	C	0.086051	0.030109	0.439604
	C4	C	0.091421	0.027131	0.448878
	C5	C	0.082586	0.024683	0.456717
	C6	C	0.095475	0.032633	0.431152
	N7	N	0.108387	0.029035	0.431152
	C8	C	0.116494	0.031395	0.423354
	N9	N	0.112337	0.037027	0.415808
	C10	C	0.099302	0.040344	0.416379
	N11	N	0.090565	0.038354	0.423925
	C12	C	0.130906	0.027563	0.423041
	C13	C	0.141603	0.032540	0.418131
	C14	C	0.155049	0.028951	0.417788
	C15	C	0.158338	0.020267	0.422381
	C16	C	0.147606	0.015317	0.427311
	C17	C	0.134142	0.018880	0.427616
	C18	C	0.094216	0.046575	0.408167
	C19	C	0.094509	0.043524	0.398195
	C20	C	0.089672	0.049325	0.390517
	C21	C	0.084360	0.058374	0.392520
	C22	C	0.084112	0.061398	0.402530
	C23	C	0.088951	0.055602	0.410220
	H24	H	0.067345	0.032889	0.431337
	H25	H	0.051511	0.028607	0.445331
	H26	H	0.086918	0.022371	0.463809
	H27	H	0.102615	0.026749	0.449750
	H28	H	0.139078	0.039219	0.414579
	H29	H	0.163158	0.032878	0.413937
	H30	H	0.149963	0.008603	0.430888
	H31	H	0.125909	0.015032	0.431401
	H32	H	0.098614	0.036563	0.396662
	H33	H	0.089938	0.046887	0.382834
	H34	H	0.080033	0.068339	0.404233
	H35	H	0.088703	0.057866	0.417942
	N36	N	0.045457	0.023259	0.463005
	C37	C	0.058708	0.022516	0.463890
	H38	H	0.063568	0.019884	0.470804
	N39	N	0.175842	0.008778	0.426460
	C40	C	0.172587	0.016505	0.421972
	H41	H	0.180311	0.020641	0.417739
	N42	N	0.079255	0.061765	0.375281
	C43	C	0.079168	0.064513	0.384411
	H44	H	0.075138	0.071477	0.386530
	C45	C	-0.023018	0.001528	0.520925
	C46	C	-0.010780	0.006757	0.522388
	C47	C	-0.003120	0.010215	0.514211
	C48	C	-0.007774	0.008151	0.504288
	C49	C	-0.020103	0.002599	0.502852
	C50	C	-0.027520	-0.000666	0.511233
	H51	H	-0.007365	0.008177	0.529983
	H52	H	-0.036700	-0.005065	0.510226
	C53	C	-0.000132	0.011584	0.495869
	C54	C	0.012154	0.017182	0.497295
	C55	C	0.019485	0.020536	0.488909
	C56	C	0.014824	0.018501	0.479210
	C57	C	0.002869	0.012970	0.477774
	C58	C	-0.004776	0.009504	0.485950
	H59	H	0.028573	0.025013	0.489944
	H60	H	-0.000542	0.011518	0.470183
	C61	C	-0.024472	0.000564	0.492766
	C62	C	-0.017189	0.003850	0.484733
	H63	H	-0.033791	-0.003686	0.491687
	H64	H	-0.020640	0.002273	0.477184
	C65	C	0.009351	0.015810	0.515420
	C66	C	0.016584	0.019146	0.507385
	H67	H	0.012850	0.017345	0.522968
	H68	H	0.025921	0.023378	0.508467
	C69	C	-0.030836	-0.002219	0.529884
	O70	O	-0.024942	-0.006047	0.536824
	N71	N	-0.045098	-0.000264	0.529605
	H72	H	-0.048633	0.004516	0.524464
	C73	C	0.022794	0.021812	0.470130
	O74	O	0.016996	0.025087	0.462829
	N75	N	0.037216	0.020612	0.470758
	H76	H	0.041260	0.017057	0.476722
	C77	C	0.278522	-0.018744	0.424243
	C78	C	0.275240	-0.009255	0.426015
	C79	C	0.261341	-0.006447	0.427201
	C80	C	0.250456	-0.013340	0.426354
	C81	C	0.253876	-0.022969	0.424321
	C82	C	0.267903	-0.025489	0.423235
	H83	H	0.283512	-0.004014	0.426363
	H84	H	0.270689	-0.032737	0.421544
	C85	C	0.236260	-0.010616	0.427460
	C86	C	0.232833	-0.000995	0.429533
	C87	C	0.218803	0.001539	0.430627
	C88	C	0.208188	-0.005223	0.429557
	C89	C	0.211495	-0.014685	0.427748
	C90	C	0.225384	-0.017514	0.426619
	H91	H	0.216159	0.008758	0.432520
	H92	H	0.203101	-0.019838	0.427256
	C93	C	0.242692	-0.029756	0.423481
	C94	C	0.229152	-0.027168	0.424595
	H95	H	0.245332	-0.037057	0.421931
	H96	H	0.220861	-0.032380	0.423962
	C97	C	0.257566	0.003204	0.429245
	C98	C	0.244028	0.005785	0.430400
	H99	H	0.265840	0.008424	0.429890
	H100	H	0.241411	0.013083	0.431973
	C101	C	0.293397	-0.021755	0.422661
	O102	O	0.296686	-0.026596	0.415601
	N103	N	0.302620	-0.018625	0.430092
	H104	H	0.298945	-0.014483	0.435705
	C105	C	0.193128	-0.002586	0.430952
	O106	O	0.185218	-0.007313	0.435992
	N107	N	0.189102	0.005592	0.425798
	H108	H	0.195982	0.008702	0.421012
	C109	C	0.043767	0.105191	0.315376
	C110	C	0.053941	0.107873	0.322331
	C111	C	0.059021	0.101386	0.329424
	C112	C	0.053480	0.091980	0.329630
	C113	C	0.042856	0.089346	0.322649
	C114	C	0.038088	0.096043	0.315658
	H115	H	0.057962	0.115064	0.322091
	H116	H	0.029762	0.094169	0.310527
	C117	C	0.058494	0.085272	0.336778
	C118	C	0.069171	0.087891	0.343726
	C119	C	0.074026	0.081167	0.350659
	C120	C	0.068412	0.072000	0.350880
	C121	C	0.058170	0.069338	0.343971
	C122	C	0.053012	0.075849	0.336937
	H123	H	0.082407	0.083001	0.355757
	H124	H	0.054309	0.062106	0.344115
	C125	C	0.037449	0.079821	0.323048
	C126	C	0.042308	0.073399	0.329818
	H127	H	0.029364	0.077836	0.317763
	H128	H	0.038163	0.066242	0.329989
	C129	C	0.069712	0.103839	0.336552
	C130	C	0.074570	0.097419	0.343326
	H131	H	0.073882	0.110989	0.336362
	H132	H	0.082668	0.099401	0.348600
	C133	C	0.038415	0.112434	0.307996
	O134	O	0.036246	0.120547	0.310413
	N135	N	0.037233	0.109016	0.298219
	H136	H	0.041839	0.102731	0.296560
	C137	C	0.073929	0.064685	0.358088
	O138	O	0.077457	0.056877	0.355398
	N139	N	0.074263	0.067616	0.368062
	H140	H	0.070097	0.073997	0.369830
	C141	C	0.841330	0.981565	0.572716
	C142	C	0.848382	0.982095	0.581937
	C143	C	0.862315	0.979574	0.582771
	C144	C	0.869713	0.976410	0.574402
	C145	C	0.862738	0.975866	0.565175
	C146	C	0.848803	0.978407	0.564348
	C147	C	0.884612	0.973702	0.575314
	N148	N	0.893579	0.977069	0.568470
	C149	C	0.906941	0.974507	0.569606
	N150	N	0.911488	0.968866	0.577026
	C151	C	0.901851	0.965785	0.583540
	N152	N	0.888306	0.968032	0.582945
	C153	C	0.917270	0.978133	0.562216
	C154	C	0.928899	0.972727	0.559564
	C155	C	0.938537	0.976140	0.552666
	C156	C	0.936898	0.985066	0.548123
	C157	C	0.925247	0.990458	0.550817
	C158	C	0.915632	0.987071	0.557741
	C159	C	0.906379	0.959515	0.591906
	C160	C	0.919051	0.961115	0.596901
	C161	C	0.923196	0.955280	0.604764
	C162	C	0.914822	0.947651	0.607949
	C163	C	0.902148	0.946067	0.602908
	C164	C	0.898010	0.951882	0.595028
	H165	H	0.867727	0.979956	0.589876
	H166	H	0.842775	0.984519	0.588468
	H167	H	0.843569	0.977964	0.557169
	H168	H	0.868542	0.973460	0.558751
	H169	H	0.930198	0.965864	0.563069
	H170	H	0.947507	0.971907	0.550733
	H171	H	0.923848	0.997375	0.547430
	H172	H	0.906677	0.991241	0.559804
	H173	H	0.925507	0.966987	0.594460
	H174	H	0.933015	0.956592	0.608564
	H175	H	0.895534	0.940229	0.605246
	H176	H	0.888226	0.950703	0.591172
	N177	N	0.819703	0.987040	0.579451
	C178	C	0.826577	0.984234	0.571820
	H179	H	0.821770	0.983735	0.564374
	N180	N	0.945386	0.996517	0.536259
	C181	C	0.947121	0.988587	0.540783
	H182	H	0.955915	0.983906	0.539200
	N183	N	0.930660	0.942794	0.620934
	C184	C	0.919069	0.941500	0.616328
	H185	H	0.911839	0.935803	0.618496
	C186	C	0.429069	0.976117	0.457161
	C187	C	0.433927	0.975246	0.447297
	C188	C	0.425256	0.971969	0.439698
	C189	C	0.411393	0.969392	0.441682
	C190	C	0.406489	0.970250	0.451518
	C191	C	0.415156	0.973570	0.459109
	C192	C	0.402175	0.965796	0.433544
	N193	N	0.388527	0.967756	0.433963
	C194	C	0.380628	0.964372	0.426465
	N195	N	0.385661	0.959283	0.418843
	C196	C	0.399406	0.957635	0.418980
	N197	N	0.408012	0.960746	0.426199
	C198	C	0.365419	0.966347	0.426607
	C199	C	0.355771	0.959554	0.423256
	C200	C	0.341564	0.961405	0.423338
	C201	C	0.336446	0.970096	0.426804
	C202	C	0.346152	0.976875	0.430154
	C203	C	0.360370	0.975047	0.430045
	C204	C	0.405487	0.952034	0.410685
	C205	C	0.401178	0.953476	0.400751
	C206	C	0.406941	0.948269	0.393006
	C207	C	0.417245	0.941451	0.394893
	C208	C	0.421511	0.940025	0.404862
	C209	C	0.415732	0.945211	0.412615
	H210	H	0.429047	0.971295	0.432117
	H211	H	0.444633	0.977178	0.445658
	H212	H	0.411199	0.974192	0.466658
	H213	H	0.395783	0.968279	0.453012
	H214	H	0.359699	0.952876	0.420548
	H215	H	0.334243	0.956115	0.420663
	H216	H	0.342394	0.983627	0.432812
	H217	H	0.367833	0.980273	0.432615
	H218	H	0.393243	0.958719	0.399289
	H219	H	0.403517	0.949446	0.385359
	H220	H	0.429444	0.934808	0.406479
	H221	H	0.419043	0.944156	0.420288
	N222	N	0.451091	0.981524	0.463548
	C223	C	0.438256	0.979547	0.465223
	H224	H	0.433673	0.980285	0.472693
	N225	N	0.316480	0.979692	0.430308
	C226	C	0.321370	0.971953	0.426838
	H227	H	0.314659	0.966222	0.424058
	N228	N	0.419587	0.937124	0.377612
	C229	C	0.423468	0.935965	0.386727
	H230	H	0.431619	0.930883	0.388778
	C231	C	0.016630	0.125359	0.283012
	C232	C	0.020448	0.123194	0.273139
	C233	C	0.014708	0.128034	0.265049
	C234	C	0.004933	0.135231	0.266541
	C235	C	0.001100	0.137448	0.276374
	C236	C	0.006845	0.132592	0.284458
	C237	C	-0.001178	0.140386	0.257869
	N238	N	-0.000307	0.149868	0.257739
	C239	C	-0.005802	0.154244	0.249719
	N240	N	-0.011985	0.149660	0.242109
	C241	C	-0.012481	0.140188	0.242855
	N242	N	-0.007209	0.135276	0.250592
	C243	C	-0.004975	0.164767	0.249258
	C244	C	-0.015417	0.170068	0.244494
	C245	C	-0.014612	0.179899	0.244079
	C246	C	-0.003362	0.184805	0.248440
	C247	C	0.007061	0.179464	0.253207
	C248	C	0.006288	0.169638	0.253598
	C249	C	-0.019250	0.134774	0.234650
	C250	C	-0.013016	0.134180	0.225197
	C251	C	-0.019259	0.128960	0.217588
	C252	C	-0.031947	0.124162	0.219149
	C253	C	-0.038168	0.124833	0.228632
	C254	C	-0.031932	0.130034	0.236253
	H255	H	0.017580	0.126346	0.257443
	H256	H	0.027985	0.117647	0.271883
	H257	H	0.003848	0.134393	0.292024
	H258	H	-0.006370	0.143052	0.277463
	H259	H	-0.024062	0.166287	0.241127
	H260	H	-0.022751	0.183877	0.240357
	H261	H	0.015816	0.183129	0.256617
	H262	H	0.014326	0.165558	0.257295
	H263	H	-0.003250	0.137874	0.224031
	H264	H	-0.014323	0.128511	0.210326
	H265	H	-0.047912	0.121137	0.229982
	H266	H	-0.036610	0.130487	0.243588
	N267	N	0.031596	0.113679	0.290354
	C268	C	0.022601	0.120225	0.291621
	H269	H	0.018652	0.122210	0.299003
	N270	N	0.007551	0.199710	0.252152
	C271	C	-0.002546	0.195209	0.248002
	H272	H	-0.010904	0.198913	0.243985
	N273	N	-0.032900	0.117614	0.202599
	C274	C	-0.038582	0.118506	0.211204
	H275	H	-0.048645	0.115255	0.213089
	C276	C	0.711967	0.004025	0.576547
	C277	C	0.717833	-0.004195	0.572633
	C278	C	0.731992	-0.006213	0.574096
	C279	C	0.740529	0.000349	0.579473
	C280	C	0.734539	0.008850	0.583240
	C281	C	0.720316	0.010579	0.581656
	H282	H	0.711192	-0.009060	0.568522
	H283	H	0.715769	0.017117	0.584275
	C284	C	0.754941	-0.001573	0.581063
	C285	C	0.760907	-0.010117	0.577383
	C286	C	0.775075	-0.011927	0.579127
	C287	C	0.783402	-0.005402	0.584300
	C288	C	0.777564	0.002885	0.588076
	C289	C	0.763451	0.004960	0.586499
	H290	H	0.779555	-0.018538	0.576659
	H291	H	0.784146	0.007682	0.592324
	C292	C	0.743410	0.015344	0.588603
	C293	C	0.757143	0.013483	0.590174
	H294	H	0.738867	0.021810	0.591426
	H295	H	0.763665	0.018430	0.594268
	C296	C	0.738314	-0.014722	0.570399
	C297	C	0.752039	-0.016596	0.571995
	H298	H	0.731791	-0.019675	0.566313
	H299	H	0.756574	-0.023070	0.569188
	C300	C	0.696748	0.005999	0.574713
	O301	O	0.691361	0.004746	0.566613
	N302	N	0.689584	0.008705	0.583328
	H303	H	0.694376	0.007830	0.590089
	C304	C	0.798476	-0.007479	0.586542
	O305	O	0.803481	-0.006363	0.594798
	N306	N	0.806147	-0.010549	0.578310
	H307	H	0.801579	-0.010507	0.571431
	C308	C	0.960384	0.899342	0.682313
	C309	C	0.955801	0.895937	0.673058
	C310	C	0.953589	0.902133	0.664973
	C311	C	0.955772	0.912058	0.666334
	C312	C	0.960188	0.915506	0.675874
	C313	C	0.962348	0.909067	0.683754
	H314	H	0.954059	0.888390	0.672213
	H315	H	0.965296	0.911642	0.691095
	C316	C	0.953455	0.918490	0.658242
	C317	C	0.949074	0.915044	0.648693
	C318	C	0.946845	0.921491	0.640827
	C319	C	0.948693	0.931225	0.642296
	C320	C	0.953293	0.934618	0.651551
	C321	C	0.955639	0.928414	0.659606
	H322	H	0.943926	0.918913	0.633484
	H323	H	0.955054	0.942166	0.652396
	C324	C	0.962263	0.925547	0.677030
	C325	C	0.960137	0.931678	0.669290
	H326	H	0.965607	0.928155	0.684273
	H327	H	0.961782	0.939218	0.670281
	C328	C	0.949157	0.898868	0.655274
	C329	C	0.947066	0.904997	0.647526
	H330	H	0.947553	0.891326	0.654271
	H331	H	0.943772	0.902386	0.640273
	C332	C	0.962213	0.892508	0.690916
	O333	O	0.953191	0.886858	0.693134
	N334	N	0.975341	0.893089	0.695460
	H335	H	0.982247	0.898016	0.692846
	C336	C	0.946561	0.938154	0.633823
	O337	O	0.954998	0.944291	0.631840
	N338	N	0.933954	0.937001	0.628701
	H339	H	0.926941	0.932174	0.631323
	C340	C	0.521573	0.003021	0.520800
	C341	C	0.511575	-0.004158	0.521739
	C342	C	0.503526	-0.006996	0.513486
	C343	C	0.505391	-0.002301	0.504088
	C344	C	0.515406	0.005182	0.503243
	C345	C	0.523324	0.007757	0.511662
	H346	H	0.510238	-0.007576	0.528962
	H347	H	0.530718	0.013566	0.511160
	C348	C	0.497287	-0.005058	0.495610
	C349	C	0.487383	-0.012610	0.496422
	C350	C	0.479613	-0.015281	0.487964
	C351	C	0.481305	-0.010523	0.478827
	C352	C	0.491169	-0.003249	0.477946
	C353	C	0.499178	-0.000382	0.486207
	H354	H	0.472469	-0.021230	0.488453
	H355	H	0.492598	0.000127	0.470709
	C356	C	0.517011	0.009805	0.493684
	C357	C	0.509316	0.007148	0.485585
	H358	H	0.524580	0.015501	0.493058
	H359	H	0.510690	0.010684	0.478431
	C360	C	0.493395	-0.014531	0.514102
	C361	C	0.485772	-0.017231	0.505983
	H362	H	0.492025	-0.018072	0.521253
	H363	H	0.478246	-0.022954	0.506601
	C364	C	0.529832	0.005978	0.529885
	O365	O	0.524330	0.007353	0.537890
	N366	N	0.544214	0.006315	0.528266
	H367	H	0.548035	0.003391	0.521885
	C368	C	0.473372	-0.013568	0.469620
	O369	O	0.478907	-0.014234	0.461512
	N370	N	0.459201	-0.015345	0.471180
	H371	H	0.454968	-0.013742	0.477925
	C372	C	0.464740	0.897824	0.318642
	C373	C	0.459511	0.893884	0.327489
	C374	C	0.452314	0.899470	0.334395
	C375	C	0.450619	0.909346	0.332416
	C376	C	0.456235	0.913362	0.323449
	C377	C	0.463304	0.907517	0.316710
	H378	H	0.461041	0.886394	0.328901
	H379	H	0.467951	0.910548	0.310035
	C380	C	0.443454	0.915170	0.339384
	C381	C	0.437800	0.911150	0.348336
	C382	C	0.430789	0.917002	0.355099
	C383	C	0.429465	0.926715	0.353217
	C384	C	0.434683	0.930647	0.344361
	C385	C	0.441758	0.925045	0.337406
	H386	H	0.426106	0.913958	0.361753
	H387	H	0.433133	0.938136	0.342943
	C388	C	0.454392	0.923341	0.321674
	C389	C	0.447481	0.928886	0.328295
	H390	H	0.458660	0.926381	0.314871
	H391	H	0.446156	0.936386	0.326829
	C392	C	0.446526	0.895620	0.343481
	C393	C	0.439579	0.901161	0.350087
	H394	H	0.447808	0.888114	0.344933
	H395	H	0.435260	0.898113	0.356870
	C396	C	0.472794	0.891640	0.311575
	O397	O	0.482251	0.886702	0.314507
	N398	N	0.467745	0.891866	0.301741
	H399	H	0.459702	0.896290	0.300076
	C400	C	0.421710	0.932980	0.360370
	O401	O	0.412931	0.938536	0.357571
	N402	N	0.425786	0.931961	0.370367
	H403	H	0.434031	0.927731	0.372009
	C404	C	0.014716	0.274583	0.248847
	C405	C	0.002739	0.269531	0.251627
	C406	C	0.003133	0.259662	0.252900
	C407	C	0.015844	0.254743	0.251124
	C408	C	0.027918	0.259927	0.248035
	C409	C	0.027098	0.269787	0.246888
	H410	H	-0.006949	0.273281	0.252716
	H411	H	0.036108	0.273828	0.244427
	C412	C	0.016465	0.244719	0.252384
	C413	C	0.004406	0.239528	0.255498
	C414	C	0.005252	0.229672	0.256754
	C415	C	0.017791	0.224931	0.255081
	C416	C	0.029592	0.229961	0.251956
	C417	C	0.029186	0.239813	0.250616
	H418	H	-0.003738	0.225718	0.259377
	H419	H	0.039184	0.226118	0.250735
	C420	C	0.040558	0.254780	0.246228
	C421	C	0.041164	0.245220	0.247466
	H422	H	0.049682	0.258738	0.243845
	H423	H	0.050784	0.241460	0.246102
	C424	C	-0.008881	0.254232	0.255945
	C425	C	-0.008266	0.244673	0.257207
	H426	H	-0.018530	0.257970	0.257260
	H427	H	-0.017418	0.240722	0.259544
	C428	C	0.014321	0.285155	0.247258
	O429	O	0.018767	0.288801	0.239680
	N430	N	0.008713	0.290145	0.255306
	H431	H	0.004845	0.286467	0.261265
	C432	C	0.018743	0.214330	0.256172
	O433	O	0.028299	0.210562	0.260575
	N434	N	0.007964	0.209288	0.251530
	H435	H	0.000985	0.212868	0.247224
	C436	C	0.946856	0.099709	0.187926
	C437	C	0.946553	0.089833	0.187290
	C438	C	0.940932	0.085292	0.178868
	C439	C	0.935237	0.090872	0.170925
	C440	C	0.935251	0.100956	0.171726
	C441	C	0.940997	0.105222	0.180279
	H442	H	0.950841	0.085707	0.193425
	H443	H	0.940649	0.112850	0.181063
	C444	C	0.929495	0.086397	0.162284
	C445	C	0.929398	0.076310	0.161522
	C446	C	0.923728	0.072043	0.152949
	C447	C	0.918431	0.077564	0.145099
	C448	C	0.918163	0.087425	0.145917
	C449	C	0.923719	0.091970	0.154364
	H450	H	0.923287	0.064393	0.152441
	H451	H	0.913637	0.091525	0.139853
	C452	C	0.929262	0.106382	0.163656
	C453	C	0.923787	0.102112	0.155408
	H454	H	0.929173	0.114030	0.164297
	H455	H	0.919297	0.106308	0.149406
	C456	C	0.940604	0.075142	0.177925
	C457	C	0.935117	0.070872	0.169684
	H458	H	0.944846	0.070941	0.184015
	H459	H	0.934928	0.063216	0.169139
	C460	C	0.952675	0.104208	0.197280
	O461	O	0.950651	0.100786	0.205486
	N462	N	0.961172	0.112114	0.195478
	H463	H	0.964403	0.113397	0.188338
	C464	C	0.912023	0.072954	0.136018
	O465	O	0.901053	0.075553	0.132464
	N466	N	0.920204	0.065877	0.131780
	H467	H	0.929951	0.064789	0.134543
	C468	C	0.583361	0.054408	0.609686
	C469	C	0.575068	0.046667	0.606736
	C470	C	0.579106	0.040818	0.598936
	C471	C	0.591585	0.042518	0.593777
	C472	C	0.599870	0.050263	0.596656
	C473	C	0.595837	0.056094	0.604471
	C474	C	0.596018	0.036224	0.585497
	N475	N	0.609378	0.033493	0.585293
	C476	C	0.612979	0.027814	0.577720
	N477	N	0.604106	0.024894	0.570586
	C478	C	0.590915	0.027915	0.571336
	N479	N	0.586479	0.033598	0.578681
	C480	C	0.627665	0.024573	0.577254
	C481	C	0.635588	0.025824	0.568539
	C482	C	0.649351	0.022823	0.568172
	C483	C	0.655694	0.018480	0.576497
	C484	C	0.647672	0.017216	0.585191
	C485	C	0.633913	0.020204	0.585569
	C486	C	0.580648	0.024773	0.563623
	C487	C	0.583891	0.017520	0.556882
	C488	C	0.574300	0.014565	0.549711
	C489	C	0.561056	0.018706	0.549007
	C490	C	0.557825	0.025949	0.555777
	C491	C	0.567428	0.028935	0.562927
	H492	H	0.572726	0.034856	0.596671
	H493	H	0.565400	0.045279	0.610672
	H494	H	0.602380	0.062022	0.606625
	H495	H	0.609503	0.051506	0.592664
	H496	H	0.630663	0.029142	0.562139
	H497	H	0.655355	0.023797	0.561386
	H498	H	0.652373	0.013853	0.591667
	H499	H	0.627741	0.019274	0.592267
	H500	H	0.594045	0.014263	0.557395
	H501	H	0.576965	0.008943	0.544583
	H502	H	0.547641	0.029204	0.555383
	H503	H	0.564853	0.034511	0.568118
	N504	N	0.567851	0.059152	0.622794
	C505	C	0.579240	0.060562	0.618011
	H506	H	0.586396	0.066354	0.619993
	N507	N	0.676207	0.011596	0.583695
	C508	C	0.670310	0.015395	0.576070
	H509	H	0.675813	0.016843	0.569045
	N510	N	0.553825	0.009266	0.535005
	C511	C	0.550805	0.015604	0.541464
	H512	H	0.540683	0.019167	0.541580
	C513	C	-0.021370	0.875213	0.715191
	C514	C	-0.011089	0.878962	0.721581
	C515	C	-0.007066	0.874186	0.730234
	C516	C	-0.013209	0.865482	0.732845
	C517	C	-0.023474	0.861704	0.726490
	C518	C	-0.027459	0.866476	0.717823
	C519	C	-0.009011	0.860431	0.742168
	N520	N	-0.008541	0.850938	0.742035
	C521	C	-0.004759	0.846675	0.750614
	N522	N	-0.001504	0.851362	0.759028
	C523	C	-0.002258	0.860835	0.758533
	N524	N	-0.005963	0.865640	0.750268
	C525	C	-0.004277	0.836148	0.750846
	C526	C	-0.008917	0.831092	0.759279
	C527	C	-0.008589	0.821252	0.759492
	C528	C	-0.003651	0.816094	0.751271
	C529	C	0.001012	0.821191	0.742851
	C530	C	0.000722	0.831034	0.742640
	C531	C	0.001110	0.866345	0.767683
	C532	C	0.014096	0.865454	0.772430
	C533	C	0.017208	0.870652	0.780973
	C534	C	0.007463	0.876917	0.785081
	C535	C	-0.005531	0.877774	0.780281
	C536	C	-0.008656	0.872590	0.771737
	H537	H	0.000804	0.877103	0.735169
	H538	H	-0.006301	0.885698	0.719687
	H539	H	-0.035429	0.863488	0.712998
	H540	H	-0.028174	0.854984	0.728513
	H541	H	-0.012708	0.835075	0.765599
	H542	H	-0.012206	0.817465	0.766065
	H543	H	0.004858	0.817320	0.736447
	H544	H	0.004259	0.834947	0.736137
	H545	H	0.021551	0.860606	0.769266
	H546	H	0.027275	0.869915	0.784574
	H547	H	-0.013138	0.882613	0.783308
	H548	H	-0.018609	0.873283	0.767989
	N549	N	-0.020449	0.888279	0.703680
	C550	C	-0.025785	0.880249	0.706045
	H551	H	-0.033513	0.876575	0.701402
	N552	N	0.000743	0.800856	0.744031
	C553	C	-0.003468	0.805678	0.751534
	H554	H	-0.007136	0.802224	0.758426
	N555	N	0.022407	0.881853	0.798563
	C556	C	0.010598	0.882470	0.794121
	H557	H	0.002128	0.886927	0.796864
	C558	C	0.486001	0.874512	0.286471
	C559	C	0.484844	0.878082	0.276665
	C560	C	0.490746	0.873360	0.268630
	C561	C	0.498069	0.864893	0.270105
	C562	C	0.499269	0.861304	0.279881
	C563	C	0.493331	0.866021	0.287904
	C564	C	0.504447	0.859856	0.261522
	N565	N	0.504096	0.850354	0.261544
	C566	C	0.509994	0.846084	0.253687
	N567	N	0.516006	0.850765	0.246061
	C568	C	0.515914	0.860249	0.246614
	N569	N	0.510263	0.865066	0.254204
	C570	C	0.509948	0.835557	0.253448
	C571	C	0.521993	0.830577	0.250829
	C572	C	0.521992	0.820733	0.250652
	C573	C	0.509959	0.815505	0.253106
	C574	C	0.497916	0.820534	0.255708
	C575	C	0.497898	0.830377	0.255872
	C576	C	0.522498	0.865740	0.238354
	C577	C	0.518798	0.864062	0.228350
	C578	C	0.524985	0.869197	0.220632
	C579	C	0.535085	0.876192	0.222626
	C580	C	0.538723	0.877851	0.232672
	C581	C	0.532549	0.872723	0.240398
	H582	H	0.489892	0.876130	0.261090
	H583	H	0.479263	0.884631	0.275423
	H584	H	0.494360	0.863175	0.295416
	H585	H	0.504897	0.854764	0.280988
	H586	H	0.531224	0.834624	0.248926
	H587	H	0.531376	0.816997	0.248605
	H588	H	0.488546	0.816608	0.257621
	H589	H	0.488646	0.834246	0.257920
	H590	H	0.511063	0.858651	0.226833
	H591	H	0.522044	0.867835	0.212934
	H592	H	0.546430	0.883255	0.234353
	H593	H	0.535277	0.874021	0.248137
	N594	N	0.473193	0.887224	0.293860
	C595	C	0.479805	0.879446	0.295046
	H596	H	0.480876	0.875897	0.302318
	N597	N	0.499228	0.800234	0.255323
	C598	C	0.510066	0.805087	0.252956
	H599	H	0.519851	0.801668	0.250818
	N600	N	0.538583	0.880195	0.205331
	C601	C	0.541761	0.881647	0.214517
	H602	H	0.549755	0.886761	0.216846
	C603	C	-0.010004	0.373325	0.287345
	C604	C	-0.013846	0.375903	0.277546
	C605	C	-0.008147	0.371393	0.269303
	C606	C	0.001617	0.364128	0.270563
	C607	C	0.005444	0.361489	0.280324
	C608	C	-0.000272	0.366002	0.288564
	C609	C	0.007860	0.359404	0.261740
	N610	N	0.008156	0.349907	0.261603
	C611	C	0.013910	0.345953	0.253500
	N612	N	0.019200	0.350951	0.245818
	C613	C	0.018539	0.360407	0.246565
	N614	N	0.012954	0.364912	0.254390
	C615	C	0.014575	0.335438	0.253027
	C616	C	0.025848	0.330941	0.248420
	C617	C	0.026519	0.321121	0.247990
	C618	C	0.015983	0.315412	0.252180
	C619	C	0.004697	0.319948	0.256766
	C620	C	0.003989	0.329772	0.257172
	C621	C	0.024437	0.366236	0.238295
	C622	C	0.020360	0.364720	0.228335
	C623	C	0.025943	0.370180	0.220623
	C624	C	0.035797	0.377343	0.222583
	C625	C	0.039813	0.378836	0.232586
	C626	C	0.034241	0.373388	0.240302
	H627	H	-0.011024	0.373427	0.261760
	H628	H	-0.021343	0.381537	0.276471
	H629	H	0.002799	0.363891	0.296053
	H630	H	0.012932	0.355848	0.281224
	H631	H	0.033960	0.335321	0.245175
	H632	H	0.035260	0.317753	0.244365
	H633	H	-0.003546	0.315659	0.259998
	H634	H	-0.004695	0.333254	0.260718
	H635	H	0.012820	0.359176	0.226845
	H636	H	0.022718	0.368945	0.212959
	H637	H	0.047329	0.384370	0.234242
	H638	H	0.037256	0.374560	0.248009
	N639	N	-0.024669	0.384905	0.295024
	C640	C	-0.015872	0.378175	0.296084
	H641	H	-0.012351	0.375811	0.303507
	N642	N	0.007736	0.299684	0.255877
	C643	C	0.016914	0.305021	0.251733
	H644	H	0.026153	0.302181	0.248013
	N645	N	0.038329	0.381941	0.205342
	C646	C	0.041859	0.383157	0.214503
	H647	H	0.049749	0.388350	0.216825
	C648	C	0.844458	0.012054	0.078855
	C649	C	0.850994	0.015526	0.070170
	C650	C	0.864624	0.018899	0.070446
	C651	C	0.872238	0.018909	0.079429
	C652	C	0.865753	0.015480	0.088129
	C653	C	0.852110	0.012127	0.087847
	C654	C	0.886881	0.022403	0.079713
	N655	N	0.890824	0.027899	0.087393
	C656	C	0.904145	0.030839	0.087383
	N657	N	0.913359	0.028563	0.080267
	C658	C	0.908580	0.023043	0.072851
	N659	N	0.895427	0.019810	0.072302
	C660	C	0.909002	0.036904	0.095787
	C661	C	0.922069	0.035430	0.100250
	C662	C	0.926586	0.041057	0.108146
	C663	C	0.918197	0.048350	0.111892
	C664	C	0.905132	0.049809	0.107377
	C665	C	0.900616	0.044201	0.099466
	C666	C	0.918408	0.020267	0.064808
	C667	C	0.928251	0.026726	0.061027
	C668	C	0.937405	0.024092	0.053504
	C669	C	0.937040	0.014922	0.049463
	C670	C	0.927150	0.008480	0.053273
	C671	C	0.918019	0.011097	0.060812
	H672	H	0.869668	0.021530	0.063749
	H673	H	0.845234	0.015524	0.063172
	H674	H	0.847255	0.009506	0.094631
	H675	H	0.871665	0.015555	0.095038
	H676	H	0.928515	0.029825	0.097341
	H677	H	0.936710	0.039831	0.111497
	H678	H	0.898538	0.055413	0.110168
	H679	H	0.890536	0.045309	0.096020
	H680	H	0.928552	0.033784	0.064138
	H681	H	0.944979	0.029144	0.050652
	H682	H	0.926678	0.001380	0.050255
	H683	H	0.910370	0.006158	0.063729
	N684	N	0.823089	0.008128	0.070400
	C685	C	0.830072	0.008405	0.078593
	H686	H	0.825661	0.005837	0.085681
	N687	N	0.915331	0.060749	0.123948
	C688	C	0.923005	0.054219	0.120308
	H689	H	0.933367	0.052684	0.123397
	N690	N	0.955891	0.017802	0.038025
	C691	C	0.946633	0.012083	0.041468
	H692	H	0.945560	0.004833	0.038622
	C693	C	0.539912	0.102052	0.684434
	C694	C	0.543966	0.105551	0.675078
	C695	C	0.545917	0.099421	0.666975
	C696	C	0.544016	0.089469	0.668417
	C697	C	0.540137	0.085927	0.678054
	C698	C	0.538222	0.092303	0.685950
	H699	H	0.545503	0.113120	0.674171
	H700	H	0.535683	0.089663	0.693356
	C701	C	0.546084	0.083104	0.660306
	C702	C	0.549930	0.086643	0.650661
	C703	C	0.551938	0.080260	0.642781
	C704	C	0.550389	0.070501	0.644327
	C705	C	0.546299	0.067014	0.653680
	C706	C	0.544189	0.073153	0.661752
	H707	H	0.554452	0.082904	0.635374
	H708	H	0.544757	0.059445	0.654591
	C709	C	0.538334	0.075862	0.679287
	C710	C	0.540224	0.069794	0.671532
	H711	H	0.535392	0.073184	0.686603
	H712	H	0.538790	0.062233	0.672584
	C713	C	0.549804	0.102781	0.657178
	C714	C	0.551656	0.096714	0.649416
	H715	H	0.551193	0.110344	0.656115
	H716	H	0.554540	0.099396	0.642090
	C717	C	0.538363	0.108822	0.693046
	O718	O	0.547397	0.114518	0.695083
	N719	N	0.525450	0.108119	0.697826
	H720	H	0.518510	0.103157	0.695352
	C721	C	0.552318	0.063632	0.635855
	O722	O	0.543940	0.057417	0.634042
	N723	N	0.564686	0.064934	0.630523
	H724	H	0.571669	0.069851	0.632981
	C725	C	-0.003922	0.725779	0.744628
	C726	C	-0.014857	0.731772	0.747218
	C727	C	-0.013711	0.741604	0.745882
	C728	C	-0.001055	0.745517	0.742029
	C729	C	0.010180	0.739368	0.739570
	C730	C	0.008580	0.729563	0.740968
	H731	H	-0.024330	0.728675	0.750231
	H732	H	0.017186	0.724876	0.739387
	C733	C	0.000382	0.755504	0.740717
	C734	C	-0.010876	0.761646	0.743141
	C735	C	-0.009257	0.771452	0.741794
	C736	C	0.003301	0.775255	0.738253
	C737	C	0.014234	0.769268	0.735643
	C738	C	0.013036	0.759424	0.736868
	H739	H	-0.017902	0.776124	0.743316
	H740	H	0.023690	0.772377	0.732616
	C741	C	0.022815	0.743527	0.735723
	C742	C	0.024158	0.753053	0.734418
	H743	H	0.031334	0.738858	0.733853
	H744	H	0.033736	0.756063	0.731487
	C745	C	-0.024870	0.747965	0.748270
	C746	C	-0.023546	0.757487	0.746928
	H747	H	-0.034470	0.744951	0.751159
	H748	H	-0.032096	0.762150	0.748740
	C749	C	-0.005457	0.715295	0.746524
	O750	O	-0.010583	0.712239	0.754170
	N751	N	-0.001324	0.709663	0.738492
	H752	H	0.000265	0.712817	0.731711
	C753	C	0.004909	0.785771	0.736607
	O754	O	0.009798	0.789071	0.728992
	N755	N	0.000605	0.791271	0.744683
	H756	H	-0.002115	0.787957	0.751170
	C757	C	0.024844	0.900143	0.818596
	C758	C	0.039083	0.901710	0.820196
	C759	C	0.043854	0.905855	0.829110
	C760	C	0.034000	0.908628	0.836516
	C761	C	0.019468	0.907147	0.834739
	C762	C	0.015132	0.902981	0.825732
	H763	H	0.046439	0.899778	0.814432
	H764	H	0.004138	0.901945	0.824168
	C765	C	0.038629	0.912911	0.845593
	C766	C	0.053159	0.914407	0.847374
	C767	C	0.057502	0.918646	0.856349
	C768	C	0.047747	0.921481	0.863479
	C769	C	0.033544	0.919835	0.861890
	C770	C	0.028769	0.915647	0.853009
	H771	H	0.068510	0.919588	0.857894
	H772	H	0.026249	0.921845	0.867675
	C773	C	0.009778	0.910005	0.842334
	C774	C	0.014203	0.914017	0.851033
	H775	H	-0.001240	0.908861	0.840960
	H776	H	0.006762	0.916101	0.856686
	C777	C	0.058424	0.907462	0.831108
	C778	C	0.062847	0.911497	0.839797
	H779	H	0.065885	0.905345	0.825483
	H780	H	0.073868	0.912623	0.841168
	C781	C	0.019690	0.896009	0.808879
	O782	O	0.011307	0.900129	0.803679
	N783	N	0.025322	0.887137	0.806729
	H784	H	0.032583	0.884390	0.811490
	C785	C	0.052403	0.925844	0.873204
	O786	O	0.048565	0.922852	0.881257
	N787	N	0.061164	0.933706	0.872054
	H788	H	0.063125	0.936157	0.865024
	C789	C	0.500642	0.725102	0.258391
	C790	C	0.510351	0.731053	0.263043
	C791	C	0.508540	0.740904	0.263059
	C792	C	0.496755	0.744875	0.258054
	C793	C	0.487024	0.738766	0.253133
	C794	C	0.489184	0.728945	0.253334
	H795	H	0.519295	0.727909	0.266730
	H796	H	0.482060	0.724288	0.249385
	C797	C	0.494759	0.754875	0.257930
	C798	C	0.504452	0.760980	0.262894
	C799	C	0.502272	0.770799	0.262717
	C800	C	0.490839	0.774644	0.257633
	C801	C	0.481156	0.768696	0.252949
	C802	C	0.482953	0.758844	0.252948
	H803	H	0.509333	0.775450	0.266729
	H804	H	0.472159	0.771841	0.249331
	C805	C	0.475265	0.742976	0.248130
	C806	C	0.473313	0.752515	0.248066
	H807	H	0.467896	0.738337	0.244388
	H808	H	0.464374	0.755565	0.244290
	C809	C	0.518160	0.747231	0.267964
	C810	C	0.516190	0.756767	0.267921
	H811	H	0.527075	0.744177	0.271766
	H812	H	0.523531	0.761403	0.271696
	C813	C	0.503182	0.714576	0.258323
	O814	O	0.514655	0.711339	0.256872
	N815	N	0.491415	0.709153	0.260736
	H816	H	0.483054	0.712481	0.263782
	C817	C	0.488280	0.785161	0.257682
	O818	O	0.476978	0.788475	0.259571
	N819	N	0.499907	0.790651	0.255132
	H820	H	0.508662	0.787332	0.252758
	C821	C	0.556018	0.898298	0.189141
	C822	C	0.548122	0.898690	0.180327
	C823	C	0.553879	0.902368	0.171470
	C824	C	0.567868	0.905878	0.171551
	C825	C	0.575738	0.905647	0.180643
	C826	C	0.569600	0.901908	0.189331
	H827	H	0.537428	0.896192	0.180401
	H828	H	0.575329	0.901794	0.196339
	C829	C	0.573918	0.909629	0.162626
	C830	C	0.566047	0.909876	0.153534
	C831	C	0.572199	0.913574	0.144825
	C832	C	0.585971	0.916877	0.144954
	C833	C	0.593698	0.916719	0.153836
	C834	C	0.587922	0.913107	0.162709
	H835	H	0.566435	0.913604	0.137837
	H836	H	0.604353	0.919314	0.153713
	C837	C	0.589782	0.909276	0.180514
	C838	C	0.595581	0.912806	0.171986
	H839	H	0.595703	0.909117	0.187437
	H840	H	0.606191	0.915481	0.172018
	C841	C	0.546174	0.902766	0.162214
	C842	C	0.551962	0.906317	0.153689
	H843	H	0.535546	0.900127	0.162176
	H844	H	0.545999	0.906526	0.146787
	C845	C	0.549720	0.894557	0.198703
	O846	O	0.549508	0.899262	0.206252
	N847	N	0.544559	0.885306	0.197903
	H848	H	0.544951	0.882052	0.191118
	C849	C	0.592482	0.921087	0.135697
	O850	O	0.603708	0.918539	0.132619
	N851	N	0.584647	0.928258	0.131195
	H852	H	0.575856	0.930499	0.134666
	C853	C	0.939955	0.426469	0.355870
	C854	C	0.953868	0.424381	0.353820
	C855	C	0.957523	0.419430	0.345148
	C856	C	0.946808	0.416321	0.338465
	C857	C	0.932580	0.418278	0.340730
	C858	C	0.929371	0.423293	0.349462
	H859	H	0.961845	0.426754	0.359018
	H860	H	0.918590	0.424603	0.351363
	C861	C	0.950300	0.411293	0.329595
	C862	C	0.964537	0.409421	0.327282
	C863	C	0.967767	0.404564	0.318454
	C864	C	0.957199	0.401442	0.312002
	C865	C	0.943268	0.403404	0.314133
	C866	C	0.939595	0.408241	0.322876
	H867	H	0.978562	0.403415	0.316480
	H868	H	0.935315	0.401166	0.308851
	C869	C	0.922011	0.415028	0.333866
	C870	C	0.925350	0.410281	0.325371
	H871	H	0.911214	0.416482	0.335608
	H872	H	0.917262	0.407920	0.320260
	C873	C	0.971766	0.417367	0.342669
	C874	C	0.975106	0.412645	0.334159
	H875	H	0.979855	0.419734	0.347776
	H876	H	0.985904	0.411205	0.332408
	C877	C	0.936507	0.431698	0.365349
	O878	O	0.941982	0.429747	0.373270
	N879	N	0.927321	0.439237	0.363883
	H880	H	0.925241	0.441357	0.356730
	C881	C	0.960702	0.396587	0.302318
	O882	O	0.955298	0.398782	0.294436
	N883	N	0.970361	0.389269	0.303277
	H884	H	0.973350	0.387179	0.310252
	C885	C	0.054458	0.400965	0.189620
	C886	C	0.046372	0.401576	0.180909
	C887	C	0.051778	0.405777	0.172193
	C888	C	0.065593	0.409596	0.172324
	C889	C	0.073680	0.409084	0.181305
	C890	C	0.067892	0.404824	0.189850
	H891	H	0.035797	0.398850	0.180963
	H892	H	0.073773	0.404507	0.196787
	C893	C	0.071245	0.413952	0.163569
	C894	C	0.063166	0.414479	0.154584
	C895	C	0.068908	0.418811	0.146053
	C896	C	0.082363	0.422674	0.146316
	C897	C	0.090441	0.421982	0.155007
	C898	C	0.085078	0.417734	0.163700
	H899	H	0.063015	0.419026	0.139125
	H900	H	0.100985	0.424782	0.154908
	C901	C	0.087569	0.412981	0.181218
	C902	C	0.093004	0.417066	0.172840
	H903	H	0.093673	0.412567	0.188047
	H904	H	0.103502	0.419940	0.172898
	C905	C	0.043880	0.406422	0.163037
	C906	C	0.049305	0.410527	0.154663
	H907	H	0.033405	0.403511	0.162948
	H908	H	0.043198	0.410915	0.147835
	C909	C	0.048511	0.396757	0.199081
	O910	O	0.048209	0.401205	0.206804
	N911	N	0.043777	0.387431	0.197996
	H912	H	0.044099	0.384421	0.191084
	C913	C	0.088670	0.427157	0.137126
	O914	O	0.099992	0.424898	0.133976
	N915	N	0.080511	0.434256	0.132803
	H916	H	0.071548	0.436157	0.136280
	C917	C	0.719631	-0.018589	0.068168
	C918	C	0.724050	-0.011132	0.074286
	C919	C	0.737503	-0.007294	0.073318
	C920	C	0.746806	-0.011187	0.066120
	C921	C	0.742287	-0.018913	0.060032
	C922	C	0.728753	-0.022538	0.061230
	H923	H	0.717026	-0.008379	0.079884
	H924	H	0.725203	-0.028500	0.056799
	C925	C	0.760550	-0.007429	0.065066
	C926	C	0.765079	0.000295	0.071153
	C927	C	0.778649	0.003888	0.070008
	C928	C	0.787765	-0.000083	0.063058
	C929	C	0.783295	-0.007493	0.056917
	C930	C	0.769829	-0.011303	0.057841
	H931	H	0.782059	0.009912	0.074391
	H932	H	0.790437	-0.010244	0.051386
	C933	C	0.751884	-0.022689	0.052841
	C934	C	0.764959	-0.019052	0.051778
	H935	H	0.748409	-0.028547	0.048231
	H936	H	0.772035	-0.021964	0.046301
	C937	C	0.742367	0.000474	0.079359
	C938	C	0.755451	0.004101	0.078307
	H939	H	0.735287	0.003422	0.084811
	H940	H	0.758899	0.009972	0.082908
	C941	C	0.705350	-0.022909	0.069459
	O942	O	0.703799	-0.031304	0.071002
	N943	N	0.694530	-0.016367	0.068528
	H944	H	0.697012	-0.009428	0.067324
	C945	C	0.802224	0.003901	0.061676
	O946	O	0.806755	0.006085	0.053526
	N947	N	0.809935	0.004587	0.070535
	H948	H	0.805745	0.001951	0.076960
	C949	C	0.021175	-0.002057	-0.022088
	C950	C	0.006620	-0.002021	-0.022427
	C951	C	-0.001164	0.001723	-0.014524
	C952	C	0.005934	0.005371	-0.005945
	C953	C	0.020803	0.005151	-0.005557
	C954	C	0.028202	0.001362	-0.013637
	H955	H	0.001408	-0.004890	-0.028968
	H956	H	0.039456	0.000912	-0.013255
	C957	C	-0.001784	0.009146	0.002206
	C958	C	-0.016654	0.009373	0.001806
	C959	C	-0.024057	0.013109	0.009907
	C960	C	-0.017030	0.016500	0.018367
	C961	C	-0.002477	0.016509	0.018707
	C962	C	0.005313	0.012818	0.010776
	H963	H	-0.035314	0.013554	0.009557
	H964	H	0.002704	0.019449	0.025225
	C965	C	0.027661	0.008868	0.003196
	C966	C	0.020301	0.012538	0.010941
	H967	H	0.038944	0.008702	0.003485
	H968	H	0.025638	0.015337	0.017462
	C969	C	-0.016150	0.002036	-0.014712
	C970	C	-0.023512	0.005700	-0.006967
	H971	H	-0.021481	-0.000722	-0.021256
	H972	H	-0.034793	0.005897	-0.007272
	C973	C	0.029049	-0.006435	-0.030634
	O974	O	0.024957	-0.013585	-0.034698
	N975	N	0.040679	-0.001176	-0.033706
	H976	H	0.041726	0.005605	-0.031224
	C977	C	-0.025020	0.020680	0.026950
	O978	O	-0.022209	0.028367	0.030430
	N979	N	-0.035583	0.014792	0.030636
	H980	H	-0.036499	0.008128	0.027844
	C981	C	0.522722	0.125866	0.717539
	C982	C	0.512699	0.122040	0.724076
	C983	C	0.508925	0.126755	0.732757
	C984	C	0.515073	0.135473	0.735251
	C985	C	0.525088	0.139325	0.728751
	C986	C	0.528821	0.134614	0.720056
	C987	C	0.511123	0.140467	0.744595
	N988	N	0.510633	0.149961	0.744430
	C989	C	0.507056	0.154172	0.753021
	N990	N	0.504021	0.149435	0.761480
	C991	C	0.504778	0.139965	0.761013
	N992	N	0.508289	0.135209	0.752739
	C993	C	0.506533	0.164696	0.753214
	C994	C	0.511411	0.169719	0.761570
	C995	C	0.511010	0.179556	0.761753
	C996	C	0.505756	0.184743	0.753577
	C997	C	0.500868	0.179678	0.745230
	C998	C	0.501232	0.169838	0.745049
	C999	C	0.501610	0.134399	0.770202
	C1000	C	0.488623	0.135123	0.774908
	C1001	C	0.485678	0.129861	0.783477
	C1002	C	0.495598	0.123698	0.787651
	C1003	C	0.508598	0.123016	0.782896
	C1004	C	0.511556	0.128263	0.774326
	H1005	H	0.501249	0.123780	0.737802
	H1006	H	0.507910	0.115293	0.722272
	H1007	H	0.536596	0.137661	0.715117
	H1008	H	0.529792	0.146056	0.730684
	H1009	H	0.515437	0.165713	0.767859
	H1010	H	0.514809	0.183318	0.768268
	H1011	H	0.496783	0.183573	0.738860
	H1012	H	0.497517	0.165949	0.738603
	H1013	H	0.481031	0.139891	0.771691
	H1014	H	0.475605	0.130466	0.787043
	H1015	H	0.516342	0.118259	0.785978
	H1016	H	0.521511	0.127703	0.770609
	N1017	N	0.521510	0.112863	0.706090
	C1018	C	0.526858	0.120901	0.708353
	H1019	H	0.534381	0.124637	0.703594
	N1020	N	0.500930	0.200007	0.746365
	C1021	C	0.505461	0.195155	0.753819
	H1022	H	0.509315	0.198580	0.760658
	N1023	N	0.480792	0.118515	0.801080
	C1024	C	0.492620	0.118064	0.796705
	H1025	H	0.501205	0.113692	0.799501
	C1026	C	0.023955	0.624079	0.717219
	C1027	C	0.009906	0.623341	0.720076
	C1028	C	0.004732	0.628591	0.728001
	C1029	C	0.013441	0.634777	0.733354
	C1030	C	0.027464	0.635561	0.730535
	C1031	C	0.032625	0.630304	0.722608
	C1032	C	0.007927	0.640378	0.741835
	N1033	N	0.007973	0.649850	0.740979
	C1034	C	0.002855	0.654646	0.748781
	N1035	N	-0.002049	0.650485	0.757117
	C1036	C	-0.001689	0.640989	0.757378
	N1037	N	0.003194	0.635667	0.749890
	C1038	C	0.002656	0.665170	0.748206
	C1039	C	0.005604	0.670661	0.756687
	C1040	C	0.005322	0.680492	0.756186
	C1041	C	0.002122	0.685215	0.747188
	C1042	C	-0.000805	0.679683	0.738711
	C1043	C	-0.000560	0.669847	0.739207
	C1044	C	-0.006966	0.636119	0.766514
	C1045	C	-0.016237	0.628434	0.765806
	C1046	C	-0.021181	0.623922	0.774374
	C1047	C	-0.017064	0.626931	0.783958
	C1048	C	-0.007745	0.634622	0.784615
	C1049	C	-0.002777	0.639129	0.776058
	H1050	H	-0.006059	0.628004	0.730236
	H1051	H	0.003084	0.618570	0.715994
	H1052	H	0.043476	0.630987	0.720513
	H1053	H	0.034067	0.640384	0.734693
	H1054	H	0.007992	0.667034	0.763628
	H1055	H	0.007519	0.684639	0.762816
	H1056	H	-0.003337	0.683205	0.731721
	H1057	H	-0.002815	0.665591	0.732680
	H1058	H	-0.019363	0.626108	0.758426
	H1059	H	-0.028312	0.617981	0.773728
	H1060	H	-0.004419	0.637015	0.791942
	H1061	H	0.004359	0.645064	0.776558
	N1062	N	0.021645	0.612860	0.703860
	C1063	C	0.029486	0.618514	0.708853
	H1064	H	0.040566	0.619442	0.707067
	N1065	N	-0.000762	0.700088	0.738627
	C1066	C	0.001806	0.695632	0.746800
	H1067	H	0.004278	0.699296	0.753813
	N1068	N	-0.030775	0.615256	0.792668
	C1069	C	-0.022277	0.622270	0.793102
	H1070	H	-0.018717	0.625341	0.800190
	C1071	C	0.062113	0.984296	0.949913
	C1072	C	0.069579	0.990895	0.944089
	C1073	C	0.078826	0.987946	0.936762
	C1074	C	0.080931	0.978279	0.934995
	C1075	C	0.073523	0.971654	0.940781
	C1076	C	0.064290	0.974616	0.948108
	C1077	C	0.090731	0.975117	0.927121
	N1078	N	0.085571	0.970019	0.919502
	C1079	C	0.094741	0.967310	0.912537
	N1080	N	0.108388	0.969400	0.912891
	C1081	C	0.112703	0.974500	0.920776
	N1082	N	0.104220	0.977507	0.928051
	C1083	C	0.089457	0.961704	0.903918
	C1084	C	0.092704	0.964359	0.894062
	C1085	C	0.087672	0.959159	0.885996
	C1086	C	0.079197	0.951125	0.887489
	C1087	C	0.076012	0.948487	0.897383
	C1088	C	0.081046	0.953675	0.905453
	C1089	C	0.127746	0.976988	0.921489
	C1090	C	0.134977	0.980479	0.913130
	C1091	C	0.149040	0.982803	0.913805
	C1092	C	0.156392	0.981742	0.922856
	C1093	C	0.149092	0.978247	0.931213
	C1094	C	0.135029	0.975908	0.930542
	H1095	H	0.084602	0.993004	0.932277
	H1096	H	0.068007	0.998382	0.945369
	H1097	H	0.058554	0.969432	0.952486
	H1098	H	0.075138	0.964215	0.939321
	H1099	H	0.099239	0.970538	0.892948
	H1100	H	0.090266	0.961303	0.878431
	H1101	H	0.069471	0.942314	0.898663
	H1102	H	0.078519	0.951683	0.913065
	H1103	H	0.129337	0.981267	0.906156
	H1104	H	0.154523	0.985478	0.907285
	H1105	H	0.154558	0.977385	0.938260
	H1106	H	0.129360	0.973250	0.936964
	N1107	N	0.050022	0.996111	0.959332
	C1108	C	0.052250	0.987323	0.957668
	H1109	H	0.047216	0.981634	0.961970
	N1110	N	0.066015	0.938392	0.880194
	C1111	C	0.073792	0.945707	0.878918
	H1112	H	0.076687	0.948213	0.871413
	N1113	N	0.178036	0.987312	0.915997
	C1114	C	0.171282	0.984185	0.923599
	H1115	H	0.176311	0.983231	0.930923
	C1116	C	0.510523	0.622025	0.283539
	C1117	C	0.518007	0.622020	0.274511
	C1118	C	0.513911	0.627628	0.266454
	C1119	C	0.502161	0.633442	0.267142
	C1120	C	0.494633	0.633474	0.276121
	C1121	C	0.498744	0.627863	0.284175
	C1122	C	0.497810	0.639470	0.258556
	N1123	N	0.498771	0.648900	0.259576
	C1124	C	0.494819	0.654086	0.251634
	N1125	N	0.490041	0.650363	0.243055
	C1126	C	0.489331	0.640877	0.242672
	N1127	N	0.493139	0.635173	0.250250
	C1128	C	0.495708	0.664566	0.252359
	C1129	C	0.504595	0.669753	0.246046
	C1130	C	0.505341	0.679568	0.246662
	C1131	C	0.497227	0.684553	0.253594
	C1132	C	0.488390	0.679303	0.259927
	C1133	C	0.487636	0.669487	0.259326
	C1134	C	0.484021	0.636478	0.233301
	C1135	C	0.490333	0.628395	0.229322
	C1136	C	0.485373	0.624340	0.220529
	C1137	C	0.473943	0.628217	0.215375
	C1138	C	0.467637	0.636300	0.219413
	C1139	C	0.472569	0.640352	0.228209
	H1140	H	0.519645	0.627628	0.259499
	H1141	H	0.527113	0.617553	0.273901
	H1142	H	0.492845	0.627974	0.291070
	H1143	H	0.485619	0.638010	0.276577
	H1144	H	0.510770	0.665896	0.240691
	H1145	H	0.512260	0.683497	0.241753
	H1146	H	0.482129	0.683031	0.265351
	H1147	H	0.480881	0.665425	0.264206
	H1148	H	0.499103	0.625396	0.233306
	H1149	H	0.490320	0.618086	0.217548
	H1150	H	0.458779	0.639367	0.215563
	H1151	H	0.467748	0.646594	0.231294
	N1152	N	0.525589	0.610805	0.291620
	C1153	C	0.514838	0.616126	0.292103
	H1154	H	0.508511	0.616532	0.298916
	N1155	N	0.490497	0.699608	0.260243
	C1156	C	0.498029	0.694955	0.254104
	H1157	H	0.505114	0.698409	0.248779
	N1158	N	0.474257	0.616705	0.202201
	C1159	C	0.468640	0.624054	0.206014
	H1160	H	0.459935	0.627785	0.202457
	C1161	C	0.660883	0.971388	0.069054
	C1162	C	0.651528	0.978303	0.072397
	C1163	C	0.637475	0.976208	0.073695
	C1164	C	0.632287	0.967105	0.071704
	C1165	C	0.641556	0.960165	0.068374
	C1166	C	0.655599	0.962277	0.067070
	C1167	C	0.617301	0.964835	0.073140
	N1168	N	0.613544	0.960394	0.081616
	C1169	C	0.599928	0.958427	0.082633
	N1170	N	0.590263	0.960669	0.075749
	C1171	C	0.594905	0.965094	0.067488
	N1172	N	0.608327	0.967304	0.065879
	C1173	C	0.595302	0.953480	0.091911
	C1174	C	0.582916	0.956047	0.096713
	C1175	C	0.578624	0.951421	0.105394
	C1176	C	0.586561	0.944064	0.109602
	C1177	C	0.598962	0.941525	0.104763
	C1178	C	0.603253	0.946137	0.096080
	C1179	C	0.584583	0.967689	0.059645
	C1180	C	0.573843	0.974080	0.061690
	C1181	C	0.564211	0.976506	0.054331
	C1182	C	0.564967	0.972640	0.044672
	C1183	C	0.575758	0.966235	0.042672
	C1184	C	0.585398	0.963803	0.050024
	H1185	H	0.630243	0.981508	0.076260
	H1186	H	0.655432	0.985354	0.073978
	H1187	H	0.662682	0.956849	0.064540
	H1188	H	0.637464	0.953157	0.066899
	H1189	H	0.576804	0.961690	0.093443
	H1190	H	0.569028	0.953484	0.109002
	H1191	H	0.605232	0.935882	0.107922
	H1192	H	0.612837	0.944202	0.092395
	H1193	H	0.573263	0.977032	0.069132
	H1194	H	0.555945	0.981454	0.055990
	H1195	H	0.576536	0.963189	0.035272
	H1196	H	0.593763	0.958917	0.048518
	N1197	N	0.680790	0.981741	0.069550
	C1198	C	0.675797	0.973507	0.067676
	H1199	H	0.682117	0.967699	0.064781
	N1200	N	0.589215	0.932511	0.122695
	C1201	C	0.582010	0.939213	0.118813
	H1202	H	0.572212	0.941566	0.122176
	N1203	N	0.544978	0.981060	0.038548
	C1204	C	0.554814	0.975184	0.036846
	H1205	H	0.556088	0.971876	0.029488
	C1206	C	0.839970	0.483949	0.418527
	C1207	C	0.846647	0.481512	0.427550
	C1208	C	0.860308	0.478293	0.427646
	C1209	C	0.867823	0.477411	0.418712
	C1210	C	0.861190	0.479807	0.409680
	C1211	C	0.847515	0.483002	0.409589
	C1212	C	0.882507	0.474089	0.418816
	N1213	N	0.886745	0.468484	0.411350
	C1214	C	0.900090	0.465723	0.411718
	N1215	N	0.909049	0.468245	0.418969
	C1216	C	0.903999	0.473868	0.426145
	N1217	N	0.890800	0.476945	0.426337
	C1218	C	0.905278	0.459548	0.403588
	C1219	C	0.908566	0.450041	0.405478
	C1220	C	0.913505	0.444294	0.397865
	C1221	C	0.915329	0.447837	0.388099
	C1222	C	0.912003	0.457373	0.386263
	C1223	C	0.907073	0.463131	0.393866
	C1224	C	0.913547	0.476897	0.434339
	C1225	C	0.923641	0.470714	0.438198
	C1226	C	0.932559	0.473567	0.445846
	C1227	C	0.931715	0.482695	0.449940
	C1228	C	0.921576	0.488861	0.446057
	C1229	C	0.912673	0.486022	0.438394
	H1230	H	0.865444	0.476456	0.434605
	H1231	H	0.840975	0.482196	0.434513
	H1232	H	0.842554	0.484820	0.402550
	H1233	H	0.867008	0.479066	0.402809
	H1234	H	0.907214	0.447356	0.413011
	H1235	H	0.916090	0.436974	0.399424
	H1236	H	0.913393	0.460224	0.378788
	H1237	H	0.904522	0.470471	0.392483
	H1238	H	0.924350	0.463696	0.435032
	H1239	H	0.940341	0.468727	0.448739
	H1240	H	0.920742	0.495926	0.449108
	H1241	H	0.904850	0.490756	0.435412
	N1242	N	0.818693	0.488544	0.426511
	C1243	C	0.825550	0.487431	0.418386
	H1244	H	0.821011	0.489141	0.411049
	N1245	N	0.922161	0.444823	0.371157
	C1246	C	0.920620	0.441695	0.380104
	H1247	H	0.922743	0.434331	0.382222
	N1248	N	0.950528	0.480250	0.461553
	C1249	C	0.941112	0.485758	0.458040
	H1250	H	0.939764	0.492975	0.460883
	C1251	C	0.155843	0.486265	0.077923
	C1252	C	0.148870	0.483417	0.069163
	C1253	C	0.135215	0.480093	0.069483
	C1254	C	0.128003	0.479519	0.078587
	C1255	C	0.134930	0.482333	0.087357
	C1256	C	0.148599	0.485628	0.087032
	C1257	C	0.113332	0.476077	0.078945
	N1258	N	0.109387	0.470781	0.086814
	C1259	C	0.096039	0.467904	0.086901
	N1260	N	0.086794	0.470038	0.079692
	C1261	C	0.091577	0.475348	0.072075
	N1262	N	0.104756	0.478515	0.071426
	C1263	C	0.091214	0.462098	0.095548
	C1264	C	0.078520	0.464045	0.100266
	C1265	C	0.074101	0.458701	0.108441
	C1266	C	0.082221	0.451228	0.112211
	C1267	C	0.094898	0.449283	0.107424
	C1268	C	0.099316	0.454609	0.099240
	C1269	C	0.081725	0.477960	0.063909
	C1270	C	0.071602	0.471520	0.060506
	C1271	C	0.062427	0.474000	0.052867
	C1272	C	0.063051	0.482991	0.048325
	C1273	C	0.073220	0.489414	0.051757
	C1274	C	0.082369	0.486952	0.059413
	H1275	H	0.129850	0.477934	0.062727
	H1276	H	0.154312	0.483861	0.062073
	H1277	H	0.153788	0.487767	0.093876
	H1278	H	0.129343	0.481837	0.094363
	H1279	H	0.072296	0.469798	0.097342
	H1280	H	0.064278	0.460300	0.112004
	H1281	H	0.101284	0.443539	0.110236
	H1282	H	0.109112	0.453143	0.095593
	H1283	H	0.071100	0.464599	0.064001
	H1284	H	0.054634	0.468965	0.050313
	H1285	H	0.073892	0.496378	0.048354
	H1286	H	0.090224	0.491882	0.062041
	N1287	N	0.176858	0.490736	0.069351
	C1288	C	0.170260	0.489852	0.077636
	H1289	H	0.175036	0.491852	0.084805
	N1290	N	0.085078	0.439014	0.124600
	C1291	C	0.077597	0.445701	0.120969
	H1292	H	0.067598	0.447645	0.124326
	N1293	N	0.043897	0.479987	0.037118
	C1294	C	0.053440	0.485667	0.040203
	H1295	H	0.054750	0.492769	0.036947
	C1296	C	0.503971	0.275092	0.747217
	C1297	C	0.515120	0.269184	0.749663
	C1298	C	0.514169	0.259362	0.748278
	C1299	C	0.501498	0.255365	0.744526
	C1300	C	0.490050	0.261424	0.742213
	C1301	C	0.491458	0.271224	0.743654
	H1302	H	0.524602	0.272343	0.752603
	H1303	H	0.482700	0.275839	0.742184
	C1304	C	0.500257	0.245383	0.743172
	C1305	C	0.511726	0.239333	0.745453
	C1306	C	0.510294	0.229529	0.744076
	C1307	C	0.497724	0.225639	0.740644
	C1308	C	0.486580	0.231540	0.738170
	C1309	C	0.487586	0.241379	0.739430
	H1310	H	0.519088	0.224931	0.745490
	H1311	H	0.477110	0.228369	0.735224
	C1312	C	0.477406	0.257182	0.738465
	C1313	C	0.476249	0.247661	0.737121
	H1314	H	0.468727	0.261782	0.736703
	H1315	H	0.466660	0.244587	0.734268
	C1316	C	0.525544	0.253092	0.750518
	C1317	C	0.524405	0.243577	0.749136
	H1318	H	0.535153	0.256170	0.753330
	H1319	H	0.533114	0.238983	0.750837
	C1320	C	0.505310	0.285561	0.749171
	O1321	O	0.510553	0.288558	0.756796
	N1322	N	0.500846	0.291267	0.741212
	H1323	H	0.499170	0.288200	0.734420
	C1324	C	0.496303	0.215127	0.738985
	O1325	O	0.491282	0.211861	0.731409
	N1326	N	0.500946	0.209587	0.747009
	H1327	H	0.503774	0.212861	0.753475
	C1328	C	0.478471	0.099969	0.821035
	C1329	C	0.464215	0.098282	0.822362
	C1330	C	0.459275	0.093926	0.831135
	C1331	C	0.468978	0.091057	0.838678
	C1332	C	0.483531	0.092666	0.837182
	C1333	C	0.488038	0.097046	0.828309
	H1334	H	0.456978	0.100282	0.816491
	H1335	H	0.499055	0.098181	0.826956
	C1336	C	0.464179	0.086545	0.847608
	C1337	C	0.449629	0.084917	0.849101
	C1338	C	0.445119	0.080438	0.857926
	C1339	C	0.454729	0.077493	0.865183
	C1340	C	0.468945	0.079272	0.863882
	C1341	C	0.473885	0.083703	0.855158
	H1342	H	0.434087	0.079391	0.859255
	H1343	H	0.476118	0.077172	0.869765
	C1344	C	0.493063	0.089708	0.844913
	C1345	C	0.488475	0.085475	0.853471
	H1346	H	0.504097	0.090956	0.843755
	H1347	H	0.495800	0.083317	0.859228
	C1348	C	0.444680	0.092190	0.832848
	C1349	C	0.440093	0.087938	0.841398
	H1350	H	0.437333	0.094387	0.827123
	H1351	H	0.429055	0.086717	0.842556
	C1352	C	0.483801	0.104317	0.811452
	O1353	O	0.492462	0.100386	0.806408
	N1354	N	0.477977	0.113144	0.809239
	H1355	H	0.470573	0.115752	0.813911
	C1356	C	0.449867	0.072844	0.874731
	O1357	O	0.453462	0.075621	0.882913
	N1358	N	0.441222	0.064978	0.873248
	H1359	H	0.439520	0.062706	0.866132
	C1360	C	0.060855	0.569348	0.645895
	C1361	C	0.066267	0.569787	0.655608
	C1362	C	0.059600	0.575061	0.663045
	C1363	C	0.047279	0.580195	0.660558
	C1364	C	0.041972	0.579886	0.650561
	C1365	C	0.048929	0.574496	0.643350
	H1366	H	0.075685	0.565892	0.657335
	H1367	H	0.045181	0.574438	0.635691
	C1368	C	0.040352	0.585616	0.668000
	C1369	C	0.045615	0.585878	0.678012
	C1370	C	0.038596	0.591207	0.685241
	C1371	C	0.026644	0.596329	0.682703
	C1372	C	0.021280	0.595942	0.672974
	C1373	C	0.027989	0.590709	0.665525
	H1374	H	0.042265	0.591203	0.692920
	H1375	H	0.011763	0.599741	0.671288
	C1376	C	0.029552	0.585150	0.648273
	C1377	C	0.022887	0.590270	0.655392
	H1378	H	0.025546	0.584928	0.640682
	H1379	H	0.013511	0.594161	0.653549
	C1380	C	0.064703	0.575499	0.673178
	C1381	C	0.058031	0.580610	0.680300
	H1382	H	0.074057	0.571584	0.675026
	H1383	H	0.062017	0.580812	0.687897
	C1384	C	0.068536	0.563748	0.638093
	O1385	O	0.081125	0.563943	0.637514
	N1386	N	0.059867	0.557986	0.632257
	H1387	H	0.049845	0.556936	0.634528
	C1388	C	0.018857	0.601796	0.690537
	O1389	O	0.006359	0.601081	0.691585
	N1390	N	0.027220	0.607871	0.696229
	H1391	H	0.037403	0.608705	0.694321
	C1392	C	0.964031	0.605226	0.818311
	C1393	C	0.959404	0.595904	0.816954
	C1394	C	0.952419	0.591053	0.824658
	C1395	C	0.950264	0.595664	0.834017
	C1396	C	0.955244	0.605122	0.835391
	C1397	C	0.962166	0.609723	0.827500
	H1398	H	0.961375	0.592399	0.809906
	H1399	H	0.966225	0.616845	0.828449
	C1400	C	0.943274	0.590835	0.841963
	C1401	C	0.938299	0.581373	0.840601
	C1402	C	0.931466	0.576737	0.848518
	C1403	C	0.929625	0.581260	0.857713
	C1404	C	0.934168	0.590593	0.859017
	C1405	C	0.941078	0.595466	0.851304
	H1406	H	0.927323	0.569655	0.847480
	H1407	H	0.932228	0.594023	0.866119
	C1408	C	0.952917	0.609594	0.844896
	C1409	C	0.946144	0.605015	0.852448
	H1410	H	0.956700	0.616776	0.845903
	H1411	H	0.944442	0.608502	0.859549
	C1412	C	0.947307	0.581513	0.823510
	C1413	C	0.940560	0.576926	0.831072
	H1414	H	0.948938	0.578030	0.816400
	H1415	H	0.936755	0.569753	0.830045
	C1416	C	0.971939	0.610330	0.810167
	O1417	O	0.983424	0.613640	0.811651
	N1418	N	0.964667	0.610913	0.801096
	H1419	H	0.955194	0.607659	0.800544
	C1420	C	0.922052	0.576366	0.866151
	O1421	O	0.912398	0.579992	0.870483
	N1422	N	0.927400	0.567478	0.868643
	H1423	H	0.936138	0.565230	0.865106
	C1424	C	0.286618	0.002164	0.918752
	C1425	C	0.280324	-0.006163	0.922241
	C1426	C	0.266052	-0.007844	0.920742
	C1427	C	0.257846	-0.000834	0.915776
	C1428	C	0.264284	0.007758	0.912436
	C1429	C	0.278609	0.009142	0.914037
	H1430	H	0.286716	-0.011369	0.926056
	H1431	H	0.283503	0.015737	0.911755
	C1432	C	0.243315	-0.002396	0.914184
	C1433	C	0.236901	-0.011022	0.917448
	C1434	C	0.222610	-0.012457	0.915736
	C1435	C	0.214597	-0.005486	0.911008
	C1436	C	0.220869	0.002886	0.907620
	C1437	C	0.235122	0.004595	0.909177
	H1438	H	0.217776	-0.019109	0.917890
	H1439	H	0.214510	0.008045	0.903704
	C1440	C	0.255735	0.014705	0.907483
	C1441	C	0.241885	0.013190	0.905913
	H1442	H	0.260618	0.021234	0.904978
	H1443	H	0.235608	0.018482	0.902136
	C1444	C	0.259287	-0.016437	0.924010
	C1445	C	0.245447	-0.017965	0.922409
	H1446	H	0.265566	-0.021734	0.927778
	H1447	H	0.240572	-0.024504	0.924892
	C1448	C	0.301938	0.003756	0.920672
	O1449	O	0.307237	0.001951	0.928693
	N1450	N	0.309283	0.006819	0.912220
	H1451	H	0.304469	0.006441	0.905419
	C1452	C	0.199355	-0.007138	0.908866
	O1453	O	0.194208	-0.005456	0.900759
	N1454	N	0.191736	-0.010524	0.917042
	H1455	H	0.196491	-0.010932	0.923844
	C1456	C	0.555821	0.569126	0.353949
	C1457	C	0.542648	0.568806	0.349470
	C1458	C	0.539968	0.573720	0.340523
	C1459	C	0.550811	0.579264	0.336074
	C1460	C	0.564154	0.579746	0.340820
	C1461	C	0.566418	0.574697	0.349747
	H1462	H	0.534523	0.564607	0.352996
	H1463	H	0.576392	0.575237	0.353530
	C1464	C	0.548309	0.584318	0.326981
	C1465	C	0.534969	0.583828	0.322231
	C1466	C	0.532728	0.588837	0.313273
	C1467	C	0.543455	0.594184	0.308924
	C1468	C	0.556500	0.594743	0.313566
	C1469	C	0.559161	0.589856	0.322531
	H1470	H	0.522750	0.588330	0.309490
	H1471	H	0.564627	0.598926	0.310020
	C1472	C	0.574850	0.585447	0.336199
	C1473	C	0.572480	0.590239	0.327501
	H1474	H	0.584955	0.585838	0.339824
	H1475	H	0.580668	0.594475	0.324105
	C1476	C	0.526611	0.573403	0.335599
	C1477	C	0.524242	0.578189	0.326896
	H1478	H	0.518412	0.569191	0.339014
	H1479	H	0.514121	0.577825	0.323293
	C1480	C	0.558158	0.563898	0.363677
	O1481	O	0.549511	0.563821	0.370260
	N1482	N	0.570575	0.558768	0.363959
	H1483	H	0.575809	0.557770	0.357424
	C1484	C	0.540981	0.599801	0.299476
	O1485	O	0.548812	0.599450	0.292393
	N1486	N	0.529190	0.605550	0.299733
	H1487	H	0.523787	0.606048	0.306244
	C1488	C	0.452981	0.608558	0.180398
	C1489	C	0.456189	0.598997	0.179049
	C1490	C	0.453571	0.594548	0.169852
	C1491	C	0.447346	0.599835	0.161882
	C1492	C	0.443878	0.609546	0.163391
	C1493	C	0.446674	0.613727	0.172692
	H1494	H	0.460614	0.594999	0.185216
	H1495	H	0.443915	0.621045	0.174040
	C1496	C	0.444527	0.595431	0.152500
	C1497	C	0.447987	0.585719	0.150981
	C1498	C	0.445116	0.581513	0.141695
	C1499	C	0.438803	0.586712	0.133994
	C1500	C	0.435693	0.596274	0.135350
	C1501	C	0.438357	0.600736	0.144523
	H1502	H	0.448037	0.574227	0.140372
	H1503	H	0.431191	0.600207	0.129155
	C1504	C	0.437625	0.614699	0.155228
	C1505	C	0.435042	0.610519	0.146249
	H1506	H	0.435020	0.622069	0.156403
	H1507	H	0.430367	0.614516	0.140170
	C1508	C	0.456920	0.584771	0.168108
	C1509	C	0.454310	0.580585	0.159133
	H1510	H	0.461656	0.580774	0.174161
	H1511	H	0.456951	0.573221	0.157963
	C1512	C	0.455378	0.613263	0.190361
	O1513	O	0.446003	0.617093	0.194800
	N1514	N	0.469199	0.612842	0.193679
	H1515	H	0.476223	0.609191	0.189519
	C1516	C	0.435977	0.582274	0.123957
	O1517	O	0.439795	0.585886	0.116184
	N1518	N	0.428315	0.573843	0.124445
	H1519	H	0.424680	0.571627	0.131211
	C1520	C	0.470110	-0.001854	-0.017180
	C1521	C	0.473072	-0.011034	-0.013882
	C1522	C	0.482008	-0.012594	-0.005716
	C1523	C	0.488357	-0.004673	-0.000863
	C1524	C	0.485504	0.004684	-0.004392
	C1525	C	0.476469	0.005939	-0.012569
	H1526	H	0.468242	-0.016964	-0.017714
	H1527	H	0.474592	0.012998	-0.015469
	C1528	C	0.497549	-0.006104	0.007411
	C1529	C	0.500377	-0.015463	0.010951
	C1530	C	0.509447	-0.016720	0.019105
	C1531	C	0.515822	-0.008926	0.023698
	C1532	C	0.512851	0.000258	0.020421
	C1533	C	0.503867	0.001821	0.012282
	H1534	H	0.511346	-0.023769	0.022023
	H1535	H	0.517605	0.006181	0.024313
	C1536	C	0.492076	0.012528	0.000640
	C1537	C	0.500766	0.011167	0.008582
	H1538	H	0.489913	0.019626	-0.002045
	H1539	H	0.505591	0.017158	0.012305
	C1540	C	0.485070	-0.021941	-0.001998
	C1541	C	0.493760	-0.023304	0.005944
	H1542	H	0.480199	-0.027927	-0.005698
	H1543	H	0.495890	-0.030401	0.008647
	C1544	C	0.460784	-0.000537	-0.026181
	O1545	O	0.461455	-0.005706	-0.033374
	N1546	N	0.450944	0.006646	-0.025080
	H1547	H	0.449259	0.009293	-0.018107
	C1548	C	0.525292	-0.010277	0.032599
	O1549	O	0.523875	-0.005881	0.040291
	N1550	N	0.535936	-0.016813	0.031063
	H1551	H	0.537097	-0.019628	0.024124
	C1552	C	0.715102	0.514283	0.425982
	C1553	C	0.719277	0.506018	0.421130
	C1554	C	0.732788	0.502470	0.422477
	C1555	C	0.742383	0.507469	0.428748
	C1556	C	0.738097	0.515991	0.433531
	C1557	C	0.724502	0.519299	0.431985
	H1558	H	0.712000	0.502399	0.416226
	H1559	H	0.721118	0.525835	0.435413
	C1560	C	0.756180	0.504006	0.430178
	C1561	C	0.760482	0.495488	0.425394
	C1562	C	0.774106	0.492199	0.426894
	C1563	C	0.783482	0.497222	0.432937
	C1564	C	0.779247	0.505438	0.437824
	C1565	C	0.765740	0.508981	0.436494
	H1566	H	0.777371	0.485617	0.423517
	H1567	H	0.786602	0.509029	0.442702
	C1568	C	0.747978	0.520871	0.439815
	C1569	C	0.761103	0.517522	0.441251
	H1570	H	0.744679	0.527332	0.443435
	H1571	H	0.768395	0.521271	0.446038
	C1572	C	0.737428	0.493919	0.417739
	C1573	C	0.750570	0.490587	0.419148
	H1574	H	0.730131	0.490136	0.412986
	H1575	H	0.753847	0.484118	0.415535
	C1576	C	0.700743	0.518243	0.424276
	O1577	O	0.699057	0.526161	0.420992
	N1578	N	0.690027	0.511989	0.426969
	H1579	H	0.692614	0.505375	0.429401
	C1580	C	0.797991	0.493576	0.434740
	O1581	O	0.802717	0.492448	0.443079
	N1582	N	0.805502	0.491889	0.425994
	H1583	H	0.801117	0.493640	0.419300
	C1584	C	0.016551	0.501248	0.521429
	C1585	C	0.002001	0.501120	0.521812
	C1586	C	-0.005914	0.497281	0.513955
	C1587	C	0.001042	0.493632	0.505377
	C1588	C	0.015905	0.493956	0.504939
	C1589	C	0.023437	0.497838	0.512971
	H1590	H	-0.003102	0.503985	0.528355
	H1591	H	0.034686	0.498361	0.512549
	C1592	C	-0.006808	0.489741	0.497283
	C1593	C	-0.021671	0.489399	0.497736
	C1594	C	-0.029203	0.485526	0.489701
	C1595	C	-0.022308	0.482108	0.481255
	C1596	C	-0.007761	0.482226	0.480861
	C1597	C	0.000154	0.486057	0.488723
	H1598	H	-0.040453	0.484986	0.490096
	H1599	H	-0.002680	0.479265	0.474358
	C1600	C	0.022623	0.490236	0.496189
	C1601	C	0.015139	0.486456	0.488499
	H1602	H	0.033901	0.490488	0.495857
	H1603	H	0.020369	0.483652	0.481981
	C1604	C	-0.020898	0.496865	0.514191
	C1605	C	-0.028386	0.493091	0.506500
	H1606	H	-0.026124	0.499632	0.520729
	H1607	H	-0.039662	0.492815	0.506843
	C1608	C	0.024591	0.505692	0.529933
	O1609	O	0.020601	0.512823	0.534004
	N1610	N	0.036247	0.500499	0.532962
	H1611	H	0.037208	0.493719	0.530485
	C1612	C	-0.030392	0.477727	0.472758
	O1613	O	-0.027574	0.470019	0.469402
	N1614	N	-0.041057	0.483432	0.468996
	H1615	H	-0.042035	0.490118	0.471694
	C1616	C	0.280268	0.517343	0.067895
	C1617	C	0.276275	0.509050	0.072917
	C1618	C	0.262781	0.505323	0.071759
	C1619	C	0.253017	0.510165	0.065502
	C1620	C	0.257127	0.518706	0.060526
	C1621	C	0.270711	0.522197	0.061888
	H1622	H	0.283676	0.505557	0.077817
	H1623	H	0.273960	0.528758	0.058325
	C1624	C	0.239216	0.506540	0.064297
	C1625	C	0.235080	0.498016	0.069298
	C1626	C	0.221432	0.494589	0.068053
	C1627	C	0.211876	0.499475	0.062050
	C1628	C	0.215949	0.507685	0.056936
	C1629	C	0.229474	0.511367	0.058012
	H1630	H	0.218274	0.488010	0.071610
	H1631	H	0.208448	0.511166	0.052096
	C1632	C	0.247077	0.523422	0.054257
	C1633	C	0.233948	0.519915	0.053034
	H1634	H	0.250247	0.529891	0.050479
	H1635	H	0.226525	0.523546	0.048260
	C1636	C	0.258318	0.496748	0.076696
	C1637	C	0.245170	0.493262	0.075504
	H1638	H	0.265752	0.493077	0.081425
	H1639	H	0.242024	0.486781	0.079268
	C1640	C	0.294576	0.521526	0.069480
	O1641	O	0.296146	0.529484	0.072641
	N1642	N	0.305375	0.515428	0.066838
	H1643	H	0.302864	0.508799	0.064414
	C1644	C	0.197313	0.495698	0.060586
	O1645	O	0.192346	0.494341	0.052366
	N1646	N	0.190066	0.494186	0.069508
	H1647	H	0.194679	0.496116	0.076061
	C1648	C	-0.021431	0.498948	-0.023757
	C1649	C	-0.006915	0.498377	-0.024211
	C1650	C	0.000808	0.494731	-0.016152
	C1651	C	-0.006297	0.491738	-0.007300
	C1652	C	-0.021113	0.492494	-0.006809
	C1653	C	-0.028453	0.496167	-0.015049
	H1654	H	-0.001685	0.500759	-0.030961
	H1655	H	-0.039641	0.497036	-0.014596
	C1656	C	0.001368	0.488094	0.001017
	C1657	C	0.016186	0.487348	0.000519
	C1658	C	0.023541	0.483772	0.008795
	C1659	C	0.016522	0.481038	0.017515
	C1660	C	0.002001	0.481527	0.017966
	C1661	C	-0.005738	0.485084	0.009866
	H1662	H	0.034741	0.482942	0.008398
	H1663	H	-0.003194	0.479086	0.024704
	C1664	C	-0.027980	0.489427	0.002218
	C1665	C	-0.020677	0.485878	0.010126
	H1666	H	-0.039224	0.489990	0.002585
	H1667	H	-0.026022	0.483573	0.016855
	C1668	C	0.015740	0.493891	-0.016441
	C1669	C	0.023047	0.490354	-0.008531
	H1670	H	0.021074	0.496146	-0.023193
	H1671	H	0.034285	0.489755	-0.008912
	C1672	C	-0.029195	0.503247	-0.032482
	O1673	O	-0.024572	0.509982	-0.037070
	N1674	N	-0.041433	0.498404	-0.035064
	H1675	H	-0.043030	0.491792	-0.032184
	C1676	C	0.024462	0.477050	0.026303
	O1677	O	0.021343	0.469595	0.030244
	N1678	N	0.035376	0.482851	0.029589
	H1679	H	0.036570	0.489352	0.026381
	C1680	C	0.474547	0.377111	0.720721
	C1681	C	0.488523	0.378004	0.723769
	C1682	C	0.493768	0.372634	0.731658
	C1683	C	0.485205	0.366170	0.736786
	C1684	C	0.471252	0.365236	0.733781
	C1685	C	0.466020	0.370614	0.725889
	C1686	C	0.490799	0.360437	0.745225
	N1687	N	0.490829	0.350982	0.744275
	C1688	C	0.496023	0.346064	0.752040
	N1689	N	0.500924	0.350093	0.760431
	C1690	C	0.500483	0.359581	0.760786
	N1691	N	0.495523	0.365019	0.753341
	C1692	C	0.496326	0.335554	0.751356
	C1693	C	0.493629	0.329893	0.759798
	C1694	C	0.494027	0.320074	0.759196
	C1695	C	0.497096	0.315533	0.750133
	C1696	C	0.499765	0.321233	0.741693
	C1697	C	0.499404	0.331058	0.742290
	C1698	C	0.505768	0.364305	0.769978
	C1699	C	0.515264	0.371872	0.769368
	C1700	C	0.520226	0.376246	0.777987
	C1701	C	0.515902	0.373212	0.787526
	C1702	C	0.506358	0.365639	0.788085
	C1703	C	0.501373	0.361269	0.779476
	H1704	H	0.504503	0.373338	0.734040
	H1705	H	0.495232	0.382990	0.719864
	H1706	H	0.455225	0.369812	0.723648
	H1707	H	0.464760	0.360204	0.737766
	H1708	H	0.491347	0.333378	0.766791
	H1709	H	0.492029	0.315796	0.765797
	H1710	H	0.502191	0.317853	0.734653
	H1711	H	0.501466	0.335443	0.735793
	H1712	H	0.518547	0.374215	0.762021
	H1713	H	0.527535	0.382096	0.777417
	H1714	H	0.502874	0.363230	0.795376
	H1715	H	0.494065	0.355424	0.779896
	N1716	N	0.476648	0.388710	0.707604
	C1717	C	0.468939	0.382804	0.712394
	H1718	H	0.457920	0.381743	0.710455
	N1719	N	0.500075	0.300832	0.741422
	C1720	C	0.497551	0.305128	0.749642
	H1721	H	0.495347	0.301325	0.756645
	N1722	N	0.529845	0.384630	0.796360
	C1723	C	0.521138	0.377731	0.796721
	H1724	H	0.517403	0.374656	0.803774
	C1725	C	0.436266	0.012561	0.950419
	C1726	C	0.423165	0.016437	0.952574
	C1727	C	0.414378	0.019552	0.944960
	C1728	C	0.418370	0.018890	0.934897
	C1729	C	0.431420	0.015006	0.932698
	C1730	C	0.440200	0.011907	0.940319
	C1731	C	0.409005	0.022213	0.926733
	N1732	N	0.414569	0.027510	0.919382
	C1733	C	0.405807	0.030341	0.912134
	N1734	N	0.392186	0.028159	0.911934
	C1735	C	0.387449	0.022852	0.919572
	N1736	N	0.395496	0.019746	0.927120
	C1737	C	0.411550	0.036158	0.903794
	C1738	C	0.408949	0.033684	0.893801
	C1739	C	0.414374	0.039085	0.885991
	C1740	C	0.422608	0.047151	0.887884
	C1741	C	0.425168	0.049598	0.897913
	C1742	C	0.419738	0.044207	0.905730
	C1743	C	0.372423	0.020239	0.919639
	C1744	C	0.366050	0.016396	0.911099
	C1745	C	0.352001	0.013952	0.911144
	C1746	C	0.343802	0.015242	0.919724
	C1747	C	0.350254	0.019075	0.928267
	C1748	C	0.364302	0.021536	0.928230
	H1749	H	0.404271	0.022497	0.946610
	H1750	H	0.419941	0.016953	0.960315
	H1751	H	0.450243	0.008908	0.938512
	H1752	H	0.434454	0.014531	0.924925
	H1753	H	0.402584	0.027486	0.892380
	H1754	H	0.412270	0.037082	0.878315
	H1755	H	0.431521	0.055789	0.899502
	H1756	H	0.421762	0.046057	0.913450
	H1757	H	0.372363	0.015423	0.904497
	H1758	H	0.347206	0.010984	0.904501
	H1759	H	0.344111	0.020066	0.934967
	H1760	H	0.369302	0.024446	0.934808
	N1761	N	0.442300	0.009840	0.967652
	C1762	C	0.445696	0.009271	0.958408
	H1763	H	0.455793	0.006543	0.955958
	N1764	N	0.436028	0.060107	0.881183
	C1765	C	0.428392	0.052787	0.879573
	H1766	H	0.425986	0.050399	0.871949
	N1767	N	0.322888	0.009332	0.912037
	C1768	C	0.328908	0.012684	0.919836
	H1769	H	0.323351	0.014020	0.926841
	C1770	C	0.153527	0.517104	0.575025
	C1771	C	0.146459	0.516432	0.584202
	C1772	C	0.132515	0.518921	0.584970
	C1773	C	0.125116	0.522187	0.576577
	C1774	C	0.132110	0.522868	0.567394
	C1775	C	0.146056	0.520366	0.566633
	C1776	C	0.110208	0.524871	0.577407
	N1777	N	0.101348	0.521843	0.570303
	C1778	C	0.088003	0.524425	0.571348
	N1779	N	0.083324	0.529725	0.578922
	C1780	C	0.092852	0.532448	0.585710
	N1781	N	0.106390	0.530192	0.585214
	C1782	C	0.077798	0.521232	0.563670
	C1783	C	0.070112	0.527829	0.558081
	C1784	C	0.060529	0.524835	0.550922
	C1785	C	0.058269	0.515148	0.549096
	C1786	C	0.065994	0.508577	0.554737
	C1787	C	0.075594	0.511558	0.561891
	C1788	C	0.088133	0.538278	0.594278
	C1789	C	0.076410	0.535588	0.599876
	C1790	C	0.072012	0.541017	0.607911
	C1791	C	0.079160	0.549330	0.610652
	C1792	C	0.090907	0.551985	0.605017
	C1793	C	0.095319	0.546563	0.596978
	H1794	H	0.127101	0.518440	0.592047
	H1795	H	0.152067	0.513934	0.590753
	H1796	H	0.151299	0.520919	0.559486
	H1797	H	0.126311	0.525349	0.560946
	H1798	H	0.071803	0.535273	0.559557
	H1799	H	0.054594	0.529997	0.546692
	H1800	H	0.064362	0.501084	0.553441
	H1801	H	0.081585	0.506520	0.566222
	H1802	H	0.070891	0.529206	0.597740
	H1803	H	0.062947	0.538856	0.612177
	H1804	H	0.096596	0.558341	0.607061
	H1805	H	0.104409	0.548560	0.592675
	N1806	N	0.175177	0.511544	0.581822
	C1807	C	0.168298	0.514493	0.574191
	H1808	H	0.173123	0.515166	0.566783
	N1809	N	0.045797	0.503280	0.539822
	C1810	C	0.048058	0.512079	0.541509
	H1811	H	0.042907	0.517746	0.537282
	N1812	N	0.063912	0.552762	0.624342
	C1813	C	0.074580	0.555132	0.619148
	H1814	H	0.080643	0.561594	0.620559
	C1815	C	0.937861	0.513326	0.948210
	C1816	C	0.929539	0.506917	0.942786
	C1817	C	0.920305	0.510072	0.935470
	C1818	C	0.919076	0.519763	0.933312
	C1819	C	0.927345	0.526195	0.938699
	C1820	C	0.936560	0.523029	0.946016
	C1821	C	0.909306	0.523163	0.925448
	N1822	N	0.914545	0.528405	0.917937
	C1823	C	0.905406	0.531382	0.910998
	N1824	N	0.891731	0.529395	0.911261
	C1825	C	0.887343	0.524112	0.919022
	N1826	N	0.895783	0.520851	0.926276
	C1827	C	0.910806	0.537224	0.902561
	C1828	C	0.922372	0.534252	0.897033
	C1829	C	0.927552	0.539762	0.889221
	C1830	C	0.921363	0.548444	0.886651
	C1831	C	0.909742	0.551365	0.892192
	C1832	C	0.904551	0.545861	0.900006
	C1833	C	0.872253	0.521760	0.919656
	C1834	C	0.864971	0.518349	0.911284
	C1835	C	0.850856	0.516166	0.911895
	C1836	C	0.843504	0.517304	0.920888
	C1837	C	0.850858	0.520721	0.929256
	C1838	C	0.864972	0.522912	0.928653
	H1839	H	0.913862	0.505163	0.931299
	H1840	H	0.930425	0.499415	0.944376
	H1841	H	0.942956	0.528066	0.950081
	H1842	H	0.926402	0.533650	0.936939
	H1843	H	0.927167	0.527602	0.899086
	H1844	H	0.936527	0.537386	0.885053
	H1845	H	0.904832	0.558036	0.890292
	H1846	H	0.895591	0.548095	0.904260
	H1847	H	0.870614	0.517517	0.904350
	H1848	H	0.845332	0.513553	0.905365
	H1849	H	0.845392	0.521638	0.936261
	H1850	H	0.870682	0.525509	0.935084
	N1851	N	0.949201	0.501279	0.957984
	C1852	C	0.947721	0.510093	0.955952
	H1853	H	0.953448	0.515675	0.959928
	N1854	N	0.921641	0.562302	0.876151
	C1855	C	0.927020	0.554290	0.878455
	H1856	H	0.936138	0.551543	0.874495
	N1857	N	0.821741	0.511891	0.914006
	C1858	C	0.828558	0.515026	0.921577
	H1859	H	0.823535	0.516100	0.928851
	C1860	C	0.563204	0.520985	0.454662
	C1861	C	0.557957	0.523325	0.445140
	C1862	C	0.566812	0.526038	0.437412
	C1863	C	0.581278	0.526554	0.438912
	C1864	C	0.586551	0.524229	0.448421
	C1865	C	0.577695	0.521479	0.456133
	C1866	C	0.590794	0.529507	0.430661
	N1867	N	0.604366	0.527392	0.431522
	C1868	C	0.612603	0.530233	0.423980
	N1869	N	0.608011	0.534893	0.415858
	C1870	C	0.594308	0.536702	0.415548
	N1871	N	0.585372	0.534161	0.422794
	C1872	C	0.627718	0.528128	0.424693
	C1873	C	0.637475	0.535464	0.425921
	C1874	C	0.651622	0.533509	0.426619
	C1875	C	0.656530	0.524161	0.426109
	C1876	C	0.646691	0.516847	0.424845
	C1877	C	0.632532	0.518788	0.424157
	C1878	C	0.588728	0.541814	0.406659
	C1879	C	0.592072	0.538871	0.396950
	C1880	C	0.586894	0.543654	0.388627
	C1881	C	0.578185	0.551552	0.389693
	C1882	C	0.574842	0.554453	0.399443
	C1883	C	0.580016	0.549678	0.407777
	H1884	H	0.562690	0.527828	0.430099
	H1885	H	0.546800	0.522984	0.443870
	H1886	H	0.581970	0.519705	0.463412
	H1887	H	0.597700	0.524613	0.449592
	H1888	H	0.633664	0.542649	0.426258
	H1889	H	0.659070	0.539240	0.427524
	H1890	H	0.650301	0.509607	0.424414
	H1891	H	0.624925	0.513179	0.423222
	H1892	H	0.598827	0.532819	0.396140
	H1893	H	0.589561	0.541309	0.381170
	H1894	H	0.568074	0.560493	0.400406
	H1895	H	0.577407	0.551873	0.415284
	N1896	N	0.540636	0.517929	0.461747
	C1897	C	0.553905	0.518100	0.462877
	H1898	H	0.558828	0.516131	0.470013
	N1899	N	0.676221	0.513751	0.426382
	C1900	C	0.671551	0.522212	0.426884
	H1901	H	0.678265	0.528381	0.428235
	N1902	N	0.575748	0.554129	0.372011
	C1903	C	0.572712	0.556697	0.380921
	H1904	H	0.566260	0.562886	0.382516
	C1905	C	0.338806	0.527875	0.068450
	C1906	C	0.348628	0.520624	0.069761
	C1907	C	0.362725	0.522689	0.070905
	C1908	C	0.367492	0.532096	0.070801
	C1909	C	0.357752	0.539366	0.069497
	C1910	C	0.343670	0.537287	0.068333
	C1911	C	0.382519	0.534347	0.072120
	N1912	N	0.386394	0.539010	0.080409
	C1913	C	0.400034	0.540972	0.081324
	N1914	N	0.409608	0.538526	0.074532
	C1915	C	0.404857	0.533882	0.066462
	N1916	N	0.391401	0.531649	0.064964
	C1917	C	0.404727	0.546186	0.090378
	C1918	C	0.400730	0.543142	0.099964
	C1919	C	0.404928	0.548101	0.108429
	C1920	C	0.413266	0.556287	0.107620
	C1921	C	0.417294	0.559274	0.097998
	C1922	C	0.413107	0.554319	0.089527
	C1923	C	0.415064	0.531109	0.058685
	C1924	C	0.426558	0.525447	0.061119
	C1925	C	0.436098	0.522888	0.053820
	C1926	C	0.434508	0.525896	0.043837
	C1927	C	0.422962	0.531568	0.041447
	C1928	C	0.413408	0.534126	0.048736
	H1929	H	0.370320	0.517130	0.071882
	H1930	H	0.345055	0.513333	0.069867
	H1931	H	0.336232	0.542968	0.067388
	H1932	H	0.361518	0.546601	0.069490
	H1933	H	0.394213	0.536887	0.100544
	H1934	H	0.401699	0.545685	0.115774
	H1935	H	0.423751	0.565562	0.097246
	H1936	H	0.416220	0.556606	0.082121
	H1937	H	0.427810	0.523184	0.068816
	H1938	H	0.444959	0.518518	0.055786
	H1939	H	0.421531	0.533947	0.033795
	H1940	H	0.404472	0.538451	0.046929
	N1941	N	0.319160	0.517298	0.067632
	C1942	C	0.323835	0.525805	0.067283
	H1943	H	0.317160	0.531951	0.065929
	N1944	N	0.424880	0.569149	0.115952
	C1945	C	0.417483	0.561583	0.116603
	H1946	H	0.413961	0.558801	0.123859
	N1947	N	0.455054	0.517966	0.038092
	C1948	C	0.444585	0.523251	0.036075
	H1949	H	0.442696	0.525959	0.028476
	C1950	C	0.436384	0.432652	0.649788
	C1951	C	0.430948	0.431979	0.659460
	C1952	C	0.437779	0.426720	0.666917
	C1953	C	0.450307	0.421843	0.664493
	C1954	C	0.455659	0.422400	0.654541
	C1955	C	0.448528	0.427764	0.647308
	H1956	H	0.421366	0.435672	0.661139
	H1957	H	0.452310	0.427991	0.639677
	C1958	C	0.457380	0.416418	0.671949
	C1959	C	0.452053	0.415893	0.681910
	C1960	C	0.459195	0.410544	0.689148
	C1961	C	0.471337	0.405658	0.686665
	C1962	C	0.476770	0.406311	0.676992
	C1963	C	0.469939	0.411571	0.669535
	H1964	H	0.455464	0.410343	0.696792
	H1965	H	0.486428	0.402694	0.675356
	C1966	C	0.468295	0.417395	0.652319
	C1967	C	0.475100	0.412274	0.659452
	H1968	H	0.472347	0.417814	0.644765
	H1969	H	0.484635	0.408578	0.657659
	C1970	C	0.432631	0.426036	0.677004
	C1971	C	0.439439	0.420920	0.684140
	H1972	H	0.423127	0.429764	0.678806
	H1973	H	0.435412	0.420526	0.691702
	C1974	C	0.428464	0.438170	0.641953
	O1975	O	0.415872	0.437808	0.641388
	N1976	N	0.436875	0.444064	0.636050
	H1977	H	0.446859	0.445325	0.638323
	C1978	C	0.479219	0.400150	0.694511
	O1979	O	0.491669	0.401061	0.695731
	N1980	N	0.471002	0.393799	0.699996
	H1981	H	0.460878	0.392845	0.697947
	C1982	C	0.535130	0.394458	0.822001
	C1983	C	0.539986	0.403728	0.820591
	C1984	C	0.547081	0.408487	0.828291
	C1985	C	0.549121	0.403834	0.837698
	C1986	C	0.543865	0.394443	0.839136
	C1987	C	0.536842	0.389934	0.831246
	H1988	H	0.538113	0.407267	0.813503
	H1989	H	0.532591	0.382861	0.832235
	C1990	C	0.556278	0.408554	0.845625
	C1991	C	0.561502	0.417957	0.844202
	C1992	C	0.568502	0.422485	0.852098
	C1993	C	0.570554	0.417835	0.861254
	C1994	C	0.565408	0.408658	0.862717
	C1995	C	0.558323	0.403892	0.855025
	H1996	H	0.572769	0.429538	0.851035
	H1997	H	0.567169	0.405221	0.869884
	C1998	C	0.546014	0.389948	0.848707
	C1999	C	0.552906	0.394433	0.856253
	H2000	H	0.541988	0.382827	0.849772
	H2001	H	0.554465	0.390929	0.863405
	C2002	C	0.552409	0.417975	0.827093
	C2003	C	0.559283	0.422467	0.834645
	H2004	H	0.550832	0.421498	0.819954
	H2005	H	0.563250	0.429602	0.833581
	C2006	C	0.527154	0.389452	0.813835
	O2007	O	0.515610	0.386229	0.815263
	N2008	N	0.534451	0.388854	0.804816
	H2009	H	0.544003	0.392008	0.804328
	C2010	C	0.577638	0.422798	0.869846
	O2011	O	0.587217	0.419277	0.874441
	N2012	N	0.571970	0.431613	0.872138
	H2013	H	0.563230	0.433728	0.868449
	C2014	C	0.283469	0.496311	0.579466
	C2015	C	0.277319	0.504551	0.575719
	C2016	C	0.263072	0.506267	0.577095
	C2017	C	0.254743	0.499378	0.582206
	C2018	C	0.261029	0.490864	0.585798
	C2019	C	0.275331	0.489442	0.584309
	H2020	H	0.283806	0.509670	0.571811
	H2021	H	0.280107	0.482902	0.586794
	C2022	C	0.240247	0.500992	0.583709
	C2023	C	0.233988	0.509548	0.580207
	C2024	C	0.219740	0.511052	0.581866
	C2025	C	0.211618	0.504214	0.586777
	C2026	C	0.217738	0.495907	0.590380
	C2027	C	0.231942	0.494133	0.588881
	H2028	H	0.215034	0.517664	0.579540
	H2029	H	0.211305	0.490858	0.594433
	C2030	C	0.252361	0.484039	0.590895
	C2031	C	0.238547	0.485605	0.592382
	H2032	H	0.257129	0.477565	0.593585
	H2033	H	0.232181	0.480410	0.596277
	C2034	C	0.256456	0.514782	0.573570
	C2035	C	0.242649	0.516360	0.575083
	H2036	H	0.262823	0.519983	0.569686
	H2037	H	0.237889	0.522843	0.572411
	C2038	C	0.298784	0.494690	0.577729
	O2039	O	0.304187	0.496329	0.569721
	N2040	N	0.305986	0.491819	0.586330
	H2041	H	0.301081	0.492322	0.593063
	C2042	C	0.196452	0.505966	0.588931
	O2043	O	0.191399	0.504447	0.597089
	N2044	N	0.188767	0.509233	0.580722
	H2045	H	0.193391	0.509488	0.573889
	C2046	C	0.712896	0.498369	0.917058
	C2047	C	0.719353	0.506821	0.919961
	C2048	C	0.733643	0.508306	0.918382
	C2049	C	0.741701	0.500976	0.913942
	C2050	C	0.735096	0.492273	0.911193
	C2051	C	0.720761	0.491089	0.912861
	H2052	H	0.713077	0.512274	0.923388
	H2053	H	0.715751	0.484416	0.911043
	C2054	C	0.756254	0.502326	0.912300
	C2055	C	0.762841	0.511051	0.914992
	C2056	C	0.777159	0.512258	0.913268
	C2057	C	0.785025	0.504976	0.909074
	C2058	C	0.778585	0.496502	0.906227
	C2059	C	0.764300	0.495010	0.907824
	H2060	H	0.782140	0.518961	0.914994
	H2061	H	0.784840	0.491090	0.902708
	C2062	C	0.743495	0.485007	0.906755
	C2063	C	0.757364	0.486319	0.905131
	H2064	H	0.738480	0.478400	0.904688
	H2065	H	0.763525	0.480785	0.901745
	C2066	C	0.740575	0.517002	0.921063
	C2067	C	0.754437	0.518323	0.919416
	H2068	H	0.734405	0.522547	0.924421
	H2069	H	0.759441	0.524943	0.921450
	C2070	C	0.697573	0.496990	0.919091
	O2071	O	0.692357	0.499404	0.926912
	N2072	N	0.690125	0.493349	0.910944
	H2073	H	0.694845	0.493258	0.904122
	C2074	C	0.800310	0.506370	0.906952
	O2075	O	0.805431	0.504368	0.898964
	N2076	N	0.807986	0.509902	0.915032
	H2077	H	0.803187	0.510604	0.921762
	C2078	C	0.472669	0.499259	0.521354
	C2079	C	0.484348	0.505159	0.522202
	C2080	C	0.491906	0.507938	0.513701
	C2081	C	0.487753	0.504483	0.504107
	C2082	C	0.475976	0.498295	0.503321
	C2083	C	0.468632	0.495743	0.512002
	H2084	H	0.487413	0.507628	0.529566
	H2085	H	0.459894	0.490872	0.511516
	C2086	C	0.495359	0.507161	0.495377
	C2087	C	0.507064	0.513412	0.496151
	C2088	C	0.514371	0.515999	0.487465
	C2089	C	0.510453	0.512397	0.478119
	C2090	C	0.498826	0.506444	0.477292
	C2091	C	0.491212	0.503709	0.485783
	H2092	H	0.522947	0.520996	0.487968
	H2093	H	0.495738	0.503990	0.469925
	C2094	C	0.472074	0.494905	0.493553
	C2095	C	0.479300	0.497492	0.485219
	H2096	H	0.463147	0.490202	0.492964
	H2097	H	0.476196	0.494893	0.477916
	C2098	C	0.503777	0.514191	0.514257
	C2099	C	0.510940	0.516830	0.505913
	H2100	H	0.506864	0.516809	0.521556
	H2101	H	0.519815	0.521579	0.506495
	C2102	C	0.465057	0.496247	0.530699
	O2103	O	0.471199	0.493531	0.538101
	N2104	N	0.450633	0.497498	0.530138
	H2105	H	0.446691	0.501435	0.524387
	C2106	C	0.518047	0.515340	0.468734
	O2107	O	0.511951	0.517476	0.461099
	N2108	N	0.532562	0.515181	0.469560
	H2109	H	0.536934	0.512437	0.475874
	C2110	C	0.529990	0.501636	-0.017271
	C2111	C	0.526435	0.510798	-0.014352
	C2112	C	0.517569	0.512308	-0.006193
	C2113	C	0.511910	0.504342	-0.000949
	C2114	C	0.515371	0.494992	-0.004086
	C2115	C	0.524306	0.493790	-0.012273
	H2116	H	0.530744	0.516761	-0.018474
	H2117	H	0.526625	0.486719	-0.014876
	C2118	C	0.502791	0.505717	0.007319
	C2119	C	0.499347	0.515070	0.010459
	C2120	C	0.490350	0.516273	0.018608
	C2121	C	0.484647	0.508425	0.023585
	C2122	C	0.488231	0.499258	0.020704
	C2123	C	0.497162	0.497749	0.012582
	H2124	H	0.487983	0.523333	0.021223
	H2125	H	0.483997	0.493312	0.024891
	C2126	C	0.509492	0.487101	0.001340
	C2127	C	0.500877	0.488413	0.009279
	H2128	H	0.512126	0.480008	-0.001041
	H2129	H	0.496583	0.482389	0.013302
	C2130	C	0.513904	0.521647	-0.002868
	C2131	C	0.505282	0.522961	0.005066
	H2132	H	0.518259	0.527669	-0.006860
	H2133	H	0.502691	0.530054	0.007471
	C2134	C	0.539188	0.500362	-0.026293
	O2135	O	0.538046	0.505339	-0.033660
	N2136	N	0.549470	0.493478	-0.025016
	H2137	H	0.551490	0.491061	-0.017961
	C2138	C	0.475248	0.509748	0.032471
	O2139	O	0.477188	0.505727	0.040381
	N2140	N	0.464017	0.515770	0.030643
	H2141	H	0.462492	0.518242	0.023562
	C2142	C	0.340559	0.483332	0.579570
	C2143	C	0.348428	0.484560	0.588367
	C2144	C	0.362405	0.482062	0.588773
	C2145	C	0.369039	0.478228	0.580389
	C2146	C	0.361254	0.476998	0.571580
	C2147	C	0.347274	0.479511	0.571183
	C2148	C	0.383983	0.475545	0.580871
	N2149	N	0.392365	0.478347	0.573393
	C2150	C	0.405802	0.475860	0.574180
	N2151	N	0.410973	0.470827	0.581875
	C2152	C	0.401885	0.468269	0.589013
	N2153	N	0.388315	0.470479	0.588800
	C2154	C	0.415518	0.478855	0.566080
	C2155	C	0.427431	0.473537	0.563908
	C2156	C	0.436542	0.476366	0.556383
	C2157	C	0.434077	0.484596	0.550703
	C2158	C	0.422130	0.489894	0.552895
	C2159	C	0.413040	0.487094	0.560446
	C2160	C	0.407135	0.462666	0.597670
	C2161	C	0.418670	0.465794	0.603245
	C2162	C	0.423520	0.460562	0.611370
	C2163	C	0.417027	0.452023	0.614221
	C2164	C	0.405471	0.448929	0.608600
	C2165	C	0.400608	0.454151	0.600475
	H2166	H	0.368452	0.482972	0.595553
	H2167	H	0.343437	0.487510	0.594901
	H2168	H	0.341388	0.478563	0.564322
	H2169	H	0.366456	0.474091	0.565124
	H2170	H	0.429377	0.467209	0.568280
	H2171	H	0.445739	0.472214	0.554838
	H2172	H	0.420086	0.496278	0.548620
	H2173	H	0.403863	0.491200	0.562120
	H2174	H	0.423668	0.472357	0.601023
	H2175	H	0.432426	0.463058	0.615627
	H2176	H	0.400287	0.442390	0.610726
	H2177	H	0.391661	0.451820	0.596180
	N2178	N	0.319530	0.489300	0.586761
	C2179	C	0.325729	0.485923	0.579102
	H2180	H	0.320396	0.484582	0.571976
	N2181	N	0.441418	0.494786	0.537251
	C2182	C	0.443808	0.487513	0.542754
	H2183	H	0.452946	0.483000	0.541701
	N2184	N	0.432533	0.449151	0.628035
	C2185	C	0.422044	0.446422	0.622817
	H2186	H	0.416456	0.439771	0.624301
	C2187	C	0.563889	0.487334	0.950593
	C2188	C	0.577102	0.483615	0.952809
	C2189	C	0.585834	0.480469	0.945251
	C2190	C	0.581679	0.480949	0.935184
	C2191	C	0.568527	0.484692	0.932924
	C2192	C	0.559799	0.487818	0.940489
	C2193	C	0.590974	0.477563	0.927086
	N2194	N	0.585434	0.471957	0.920011
	C2195	C	0.594152	0.469043	0.912843
	N2196	N	0.607678	0.471447	0.912450
	C2197	C	0.612385	0.477088	0.919792
	N2198	N	0.604388	0.480286	0.927255
	C2199	C	0.588476	0.462838	0.904834
	C2200	C	0.576791	0.465588	0.899221
	C2201	C	0.571488	0.459791	0.891720
	C2202	C	0.577682	0.451041	0.889552
	C2203	C	0.589386	0.448326	0.895206
	C2204	C	0.594694	0.454114	0.902712
	C2205	C	0.627323	0.479932	0.919627
	C2206	C	0.633574	0.483081	0.910727
	C2207	C	0.647556	0.485698	0.910543
	C2208	C	0.655812	0.485274	0.919242
	C2209	C	0.649480	0.482140	0.928146
	C2210	C	0.635500	0.479512	0.928340
	H2211	H	0.596019	0.477630	0.946945
	H2212	H	0.580451	0.483235	0.960552
	H2213	H	0.549674	0.490707	0.938638
	H2214	H	0.565374	0.485037	0.925151
	H2215	H	0.572038	0.472310	0.900942
	H2216	H	0.562442	0.462003	0.887463
	H2217	H	0.594286	0.441599	0.893627
	H2218	H	0.603735	0.452051	0.907041
	H2219	H	0.627230	0.483368	0.904025
	H2220	H	0.652252	0.488113	0.903618
	H2221	H	0.655667	0.481823	0.934938
	H2222	H	0.630603	0.477134	0.935193
	N2223	N	0.558080	0.490298	0.967764
	C2224	C	0.554502	0.490641	0.958523
	H2225	H	0.544279	0.493172	0.956028
	N2226	N	0.577584	0.436961	0.879539
	C2227	C	0.572010	0.444943	0.881602
	H2228	H	0.562857	0.447544	0.877505
	N2229	N	0.676556	0.490738	0.911014
	C2230	C	0.670650	0.487980	0.919112
	H2231	H	0.676271	0.487267	0.926231
