data_Molecule from CHK

_cell_length_a		105.466642
_cell_length_b		105.783044
_cell_length_c		103.996746
_cell_angle_alpha	90.387870
_cell_angle_beta	88.726967
_cell_angle_gamma	88.481906
_symmetry_space_group_name_H-M	'P 1'
_symmetry_Int_Tables_number		1

loop_
	_symmetry_equiv_pos_as_xyz
	x,y,z

loop_
	_atom_site_label
	_atom_site_type_symbol
	_atom_site_fract_x
	_atom_site_fract_y
	_atom_site_fract_z
	C0	C	0.006950	0.134818	0.512889
	C1	C	-0.015467	0.134739	0.487498
	H2	H	-0.015248	0.128496	0.479100
	H3	H	-0.023822	0.140988	0.486768
	C4	C	0.008099	0.126265	0.500754
	C5	C	-0.005276	0.143361	0.512531
	C6	C	-0.016300	0.126443	0.499681
	C7	C	-0.003558	0.143103	0.487808
	C8	C	0.008628	0.134586	0.488588
	C9	C	-0.017146	0.135014	0.511797
	C10	C	-0.003946	0.118117	0.500242
	C11	C	-0.004573	0.151569	0.500145
	H12	H	0.016883	0.140610	0.488705
	H13	H	-0.018038	0.128991	0.520228
	H14	H	-0.003310	0.111831	0.491837
	H15	H	-0.012979	0.157822	0.499726
	H16	H	0.009747	0.128384	0.480191
	H17	H	-0.025628	0.141165	0.511645
	H18	H	-0.004350	0.112006	0.508681
	H19	H	0.003600	0.157702	0.500528
	H20	H	0.006962	0.128743	0.521324
	H21	H	0.015072	0.140954	0.513583
	C22	C	0.019969	0.117311	0.501213
	O23	O	0.018949	0.105975	0.500061
	N24	N	0.031686	0.122924	0.502889
	H25	H	0.032181	0.132438	0.504176
	C26	C	-0.006223	0.151824	0.524821
	O27	O	-0.006692	0.163239	0.524319
	N28	N	-0.006355	0.145134	0.536341
	H29	H	-0.006365	0.135528	0.535886
	C30	C	-0.027838	0.117664	0.499279
	O31	O	-0.026396	0.106331	0.500487
	N32	N	-0.039770	0.123432	0.497592
	H33	H	-0.040620	0.132928	0.496242
	C34	C	-0.002927	0.151314	0.475472
	O35	O	-0.002861	0.162734	0.475913
	N36	N	-0.002589	0.144402	0.463985
	H37	H	-0.002204	0.134802	0.464483
	C38	C	-0.006438	0.165611	0.638305
	C39	C	0.003097	0.157702	0.632710
	C40	C	0.003443	0.155117	0.619595
	C41	C	-0.005690	0.160298	0.611361
	C42	C	-0.014916	0.168624	0.616900
	C43	C	-0.015327	0.171187	0.630078
	C44	C	-0.005648	0.156533	0.597524
	C45	C	-0.008148	0.165077	0.587539
	C46	C	-0.007966	0.161162	0.574696
	C47	C	-0.005397	0.148474	0.571277
	C48	C	-0.003002	0.139900	0.581247
	C49	C	-0.003096	0.143845	0.594005
	H50	H	-0.009818	0.167932	0.567134
	H51	H	-0.022705	0.177433	0.634132
	H52	H	-0.001042	0.130029	0.578921
	H53	H	0.010229	0.153453	0.638806
	H54	H	-0.010006	0.174956	0.589909
	H55	H	-0.022074	0.172794	0.610797
	H56	H	0.010997	0.149046	0.615593
	H57	H	-0.001434	0.136937	0.601477
	N58	N	0.000844	0.161578	0.659432
	C59	C	-0.007196	0.167362	0.652375
	H60	H	-0.015008	0.173280	0.656433
	N61	N	-0.006749	0.150976	0.548113
	C62	C	-0.005166	0.143846	0.557927
	H63	H	-0.003456	0.133597	0.556660
	C64	C	-0.003471	0.163128	0.361976
	C65	C	-0.012854	0.155641	0.367614
	C66	C	-0.013130	0.153293	0.380740
	C67	C	-0.004077	0.158305	0.388938
	C68	C	0.004985	0.166226	0.383354
	C69	C	0.005327	0.168549	0.370168
	C70	C	-0.003995	0.154774	0.402786
	C71	C	-0.001597	0.163405	0.412724
	C72	C	-0.001605	0.159708	0.425577
	C73	C	-0.003889	0.147157	0.429053
	C74	C	-0.006199	0.138495	0.419131
	C75	C	-0.006282	0.142227	0.406362
	H76	H	0.000172	0.166545	0.433101
	H77	H	0.012584	0.174474	0.366081
	H78	H	-0.007946	0.128725	0.421502
	H79	H	-0.019916	0.151530	0.361543
	H80	H	0.000049	0.173186	0.410312
	H81	H	0.012079	0.170259	0.389426
	H82	H	-0.020563	0.147544	0.384778
	H83	H	-0.007865	0.135249	0.398926
	N84	N	-0.010642	0.158978	0.340831
	C85	C	-0.002730	0.164604	0.347902
	H86	H	0.004990	0.170180	0.343840
	N87	N	-0.002422	0.150020	0.452188
	C88	C	-0.003885	0.142756	0.442415
	H89	H	-0.005403	0.132587	0.443739
	C90	C	0.103175	0.048734	0.502735
	C91	C	0.103011	0.056144	0.491583
	C92	C	0.094410	0.066255	0.490393
	C93	C	0.085659	0.069534	0.500329
	C94	C	0.086095	0.062302	0.511612
	C95	C	0.094580	0.052100	0.512766
	C96	C	0.075950	0.079872	0.498863
	C97	C	0.072926	0.088526	0.508853
	C98	C	0.063338	0.097715	0.507648
	C99	C	0.056225	0.098598	0.496419
	C100	C	0.059372	0.090115	0.486326
	C101	C	0.069056	0.081042	0.487498
	H102	H	0.061096	0.104192	0.515543
	H103	H	0.094512	0.046525	0.521470
	H104	H	0.054013	0.090592	0.477564
	H105	H	0.109595	0.053747	0.483737
	H106	H	0.078261	0.088031	0.517632
	H107	H	0.079362	0.064507	0.519383
	H108	H	0.094481	0.071817	0.481679
	H109	H	0.071073	0.074414	0.479676
	N110	N	0.120130	0.034680	0.495165
	C111	C	0.111679	0.037568	0.503827
	H112	H	0.110442	0.031741	0.512453
	N113	N	0.042609	0.115872	0.504083
	C114	C	0.045444	0.107596	0.495334
	H115	H	0.039664	0.106716	0.486719
	C116	C	0.891441	0.050394	0.498602
	C117	C	0.891377	0.058034	0.509702
	C118	C	0.899611	0.068034	0.510783
	C119	C	0.908207	0.070966	0.500788
	C120	C	0.907998	0.063501	0.489562
	C121	C	0.899882	0.053409	0.488515
	C122	C	0.917541	0.081183	0.502137
	C123	C	0.920221	0.089564	0.492063
	C124	C	0.929478	0.098627	0.493156
	C125	C	0.936592	0.099647	0.504354
	C126	C	0.933782	0.091443	0.514530
	C127	C	0.924425	0.082498	0.513469
	H128	H	0.931463	0.104889	0.485198
	H129	H	0.900126	0.047647	0.479853
	H130	H	0.939150	0.092033	0.523270
	H131	H	0.884910	0.055905	0.517591
	H132	H	0.914878	0.088958	0.483307
	H133	H	0.914626	0.065432	0.481749
	H134	H	0.899369	0.073781	0.519457
	H135	H	0.922673	0.076079	0.521353
	N136	N	0.875038	0.036750	0.506339
	C137	C	0.883351	0.039335	0.497623
	H138	H	0.884775	0.033311	0.489031
	N139	N	0.949559	0.116528	0.496493
	C140	C	0.947050	0.108496	0.505323
	H141	H	0.952890	0.107718	0.513925
	C142	C	-0.007104	0.145413	0.695012
	C143	C	0.011826	0.154221	0.721696
	H144	H	0.010121	0.151941	0.731797
	H145	H	0.020566	0.159543	0.721167
	C146	C	-0.010165	0.142127	0.709252
	C147	C	0.005257	0.153017	0.693975
	C148	C	0.013587	0.141685	0.713968
	C149	C	0.000668	0.162360	0.716344
	C150	C	-0.011693	0.154708	0.717069
	C151	C	0.016278	0.144901	0.699709
	C152	C	0.001035	0.134302	0.714851
	C153	C	0.003663	0.165364	0.701943
	H154	H	-0.019566	0.160417	0.713328
	H155	H	0.017498	0.136226	0.693991
	H156	H	-0.001136	0.132094	0.724916
	H157	H	0.012347	0.170769	0.701218
	H158	H	-0.014198	0.152479	0.727025
	H159	H	0.024931	0.150327	0.698793
	H160	H	0.002464	0.125291	0.709789
	H161	H	-0.003992	0.171362	0.698247
	H162	H	-0.005881	0.136883	0.689108
	H163	H	-0.015109	0.150855	0.691208
	C164	C	-0.022598	0.134592	0.710313
	O165	O	-0.031713	0.138673	0.716449
	N166	N	-0.022376	0.123063	0.703649
	H167	H	-0.014541	0.120505	0.698246
	C168	C	0.008678	0.155599	0.679681
	O169	O	0.018635	0.151550	0.674996
	N170	N	-0.000283	0.162185	0.672433
	H171	H	-0.008050	0.166247	0.676920
	C172	C	0.024248	0.133315	0.719966
	O173	O	0.023038	0.129692	0.730961
	N174	N	0.034786	0.129919	0.712211
	H175	H	0.036030	0.134027	0.703489
	C176	C	-0.001001	0.174935	0.724031
	O177	O	-0.000321	0.185063	0.718715
	N178	N	-0.003247	0.173828	0.737245
	H179	H	-0.004035	0.165047	0.741062
	C180	C	-0.002207	0.141668	0.305543
	C181	C	-0.020507	0.151079	0.278380
	H182	H	-0.018573	0.148546	0.268320
	H183	H	-0.029235	0.156895	0.278687
	C184	C	0.001150	0.137976	0.291386
	C185	C	-0.014557	0.149982	0.306274
	C186	C	-0.022478	0.138773	0.286123
	C187	C	-0.009459	0.158685	0.283968
	C188	C	0.002884	0.150334	0.283568
	C189	C	-0.025468	0.142384	0.300320
	C190	C	-0.009935	0.130677	0.285554
	C191	C	-0.012760	0.162103	0.298292
	H192	H	0.010679	0.155675	0.287476
	H193	H	-0.026829	0.133875	0.306043
	H194	H	-0.007552	0.128175	0.275544
	H195	H	-0.021440	0.167997	0.298801
	H196	H	0.005617	0.147781	0.273683
	H197	H	-0.034121	0.148299	0.301027
	H198	H	-0.011503	0.121835	0.290619
	H199	H	-0.005176	0.167748	0.302129
	H200	H	-0.003581	0.133297	0.311437
	H201	H	0.005724	0.146725	0.309520
	C202	C	0.013597	0.129781	0.290612
	O203	O	0.022851	0.133350	0.284731
	N204	N	0.013246	0.118306	0.297183
	H205	H	0.005318	0.116184	0.302416
	C206	C	-0.018235	0.153002	0.320497
	O207	O	-0.028232	0.149502	0.325048
	N208	N	-0.009427	0.159331	0.327830
	H209	H	-0.001629	0.162938	0.323416
	C210	C	-0.033014	0.130865	0.279927
	O211	O	-0.031608	0.127032	0.268950
	N212	N	-0.043653	0.128072	0.287513
	H213	H	-0.045107	0.132438	0.296170
	C214	C	-0.007509	0.171028	0.276285
	O215	O	-0.008539	0.181297	0.281499
	N216	N	-0.004469	0.169543	0.263222
	H217	H	-0.003732	0.160655	0.259438
	C218	C	0.139382	-0.023150	0.512114
	C219	C	0.138920	-0.000770	0.486418
	H220	H	0.144959	0.007410	0.485452
	H221	H	0.132754	-0.000811	0.478135
	C222	C	0.147586	-0.011152	0.511441
	C223	C	0.130978	-0.024084	0.500150
	C224	C	0.147677	-0.012825	0.486740
	C225	C	0.130419	0.000240	0.498725
	C226	C	0.138852	0.000871	0.510674
	C227	C	0.139497	-0.024781	0.487853
	C228	C	0.156013	-0.012017	0.498916
	C229	C	0.122417	-0.011890	0.499607
	H230	H	0.132669	0.001914	0.519187
	H231	H	0.145820	-0.033128	0.487971
	H232	H	0.162027	-0.003771	0.498275
	H233	H	0.116230	-0.012380	0.491321
	H234	H	0.144786	0.009179	0.510306
	H235	H	0.133386	-0.025790	0.479601
	H236	H	0.162415	-0.020301	0.499304
	H237	H	0.116173	-0.011350	0.508148
	H238	H	0.145779	-0.031387	0.512821
	H239	H	0.133172	-0.023057	0.520644
	C240	C	0.155804	-0.010366	0.523651
	O241	O	0.167251	-0.010152	0.523079
	N242	N	0.148772	-0.010035	0.535180
	H243	H	0.139149	-0.009914	0.534703
	C244	C	0.122451	-0.035800	0.500900
	O245	O	0.111025	-0.034634	0.500241
	N246	N	0.128641	-0.047571	0.502190
	H247	H	0.138207	-0.048137	0.503238
	C248	C	0.155962	-0.013606	0.474171
	O249	O	0.167418	-0.013791	0.474230
	N250	N	0.148940	-0.013933	0.462965
	H251	H	0.139332	-0.014195	0.463894
	C252	C	0.121366	0.012034	0.498282
	O253	O	0.109999	0.010995	0.499589
	N254	N	0.127035	0.023708	0.496407
	H255	H	0.136594	0.024159	0.495039
	C256	C	0.857938	-0.021053	0.489536
	C257	C	0.857616	0.001680	0.515242
	H258	H	0.851266	0.009966	0.516230
	H259	H	0.863812	0.001664	0.523502
	C260	C	0.849275	-0.008920	0.490241
	C261	C	0.866414	-0.021948	0.501473
	C262	C	0.849317	-0.010255	0.514943
	C263	C	0.866047	0.002394	0.502911
	C264	C	0.857555	0.002987	0.490991
	C265	C	0.857955	-0.022349	0.513796
	C266	C	0.840912	-0.009489	0.502792
	C267	C	0.874513	-0.009870	0.501997
	H268	H	0.863678	0.003825	0.482461
	H269	H	0.851948	-0.030606	0.513695
	H270	H	0.834582	-0.001144	0.503458
	H271	H	0.880744	-0.010341	0.510262
	H272	H	0.851301	0.011390	0.491381
	H273	H	0.864127	-0.023335	0.522029
	H274	H	0.834824	-0.017686	0.502419
	H275	H	0.880715	-0.009539	0.493437
	H276	H	0.851853	-0.029209	0.488847
	H277	H	0.864123	-0.021170	0.480987
	C278	C	0.840997	-0.008163	0.478051
	O279	O	0.829539	-0.007775	0.478650
	N280	N	0.847996	-0.008055	0.466506
	H281	H	0.857620	-0.008121	0.466966
	C282	C	0.875391	-0.033802	0.500694
	O283	O	0.886780	-0.032791	0.501289
	N284	N	0.869648	-0.045507	0.499460
	H285	H	0.860098	-0.045955	0.498440
	C286	C	0.841102	-0.010752	0.527544
	O287	O	0.829651	-0.010824	0.527529
	N288	N	0.848179	-0.010956	0.538723
	H289	H	0.857798	-0.011368	0.537758
	C290	C	0.874655	0.014060	0.503332
	O291	O	0.886065	0.012827	0.502022
	N292	N	0.868543	0.025853	0.505189
	H293	H	0.858967	0.026472	0.506582
	C294	C	0.906962	0.052683	0.710860
	C295	C	0.904119	0.063270	0.718713
	C296	C	0.912389	0.073317	0.719373
	C297	C	0.923857	0.073296	0.712202
	C298	C	0.926678	0.062585	0.704467
	C299	C	0.918472	0.052560	0.703793
	C300	C	0.932839	0.083950	0.712566
	C301	C	0.939761	0.087341	0.701454
	C302	C	0.948654	0.096798	0.701686
	C303	C	0.951084	0.103429	0.713067
	C304	C	0.943955	0.100357	0.724121
	C305	C	0.935041	0.090864	0.723859
	H306	H	0.953865	0.099118	0.692955
	H307	H	0.920985	0.044465	0.697729
	H308	H	0.945579	0.105412	0.733009
	H309	H	0.895279	0.063549	0.724252
	H310	H	0.938002	0.082588	0.692429
	H311	H	0.935601	0.062011	0.699095
	H312	H	0.909806	0.081462	0.725339
	H313	H	0.929923	0.088502	0.732630
	N314	N	0.887815	0.041212	0.715827
	C315	C	0.898445	0.041994	0.709650
	H316	H	0.901640	0.034468	0.702873
	N317	N	0.968062	0.114791	0.703390
	C318	C	0.961037	0.112940	0.713369
	H319	H	0.962522	0.117680	0.722606
	C320	C	0.097323	0.048455	0.717803
	C321	C	0.102822	0.059113	0.712242
	C322	C	0.096010	0.070509	0.711274
	C323	C	0.083374	0.071849	0.715797
	C324	C	0.078010	0.061193	0.721570
	C325	C	0.084787	0.049790	0.722550
	C326	C	0.075800	0.083834	0.714222
	C327	C	0.066552	0.087917	0.723397
	C328	C	0.059018	0.098729	0.721550
	C329	C	0.060374	0.106034	0.710411
	C330	C	0.069803	0.102190	0.701359
	C331	C	0.077318	0.091379	0.703239
	H332	H	0.051890	0.101595	0.728744
	H333	H	0.080302	0.041724	0.726910
	H334	H	0.071091	0.107674	0.692685
	H335	H	0.112536	0.058336	0.708613
	H336	H	0.065343	0.082596	0.732186
	H337	H	0.068235	0.061771	0.725005
	H338	H	0.100620	0.078584	0.707076
	H339	H	0.084243	0.088488	0.695869
	N340	N	0.115492	0.034590	0.713749
	C341	C	0.104210	0.036211	0.718436
	H342	H	0.099126	0.028399	0.722946
	N343	N	0.042784	0.120260	0.715687
	C344	C	0.051941	0.117003	0.707935
	H345	H	0.053572	0.122031	0.698859
	C346	C	-0.011933	0.246082	0.810532
	C347	C	-0.004902	0.235031	0.813360
	C348	C	-0.003908	0.224978	0.804669
	C349	C	-0.009836	0.225454	0.792695
	C350	C	-0.016744	0.236602	0.789853
	C351	C	-0.017803	0.246654	0.798554
	C352	C	-0.008844	0.214586	0.783490
	C353	C	-0.007625	0.216383	0.770140
	C354	C	-0.006621	0.206199	0.761597
	C355	C	-0.006849	0.193683	0.765989
	C356	C	-0.008128	0.191826	0.779307
	C357	C	-0.009073	0.202025	0.787824
	H358	H	-0.005603	0.207859	0.751348
	H359	H	-0.023260	0.255098	0.796127
	H360	H	-0.008383	0.182266	0.782963
	H361	H	-0.000199	0.234395	0.822502
	H362	H	-0.007186	0.225921	0.766446
	H363	H	-0.021581	0.237248	0.780785
	H364	H	0.001766	0.216672	0.807072
	H365	H	-0.010275	0.200279	0.798030
	N366	N	-0.007900	0.256153	0.830732
	C367	C	-0.013247	0.256645	0.819798
	H368	H	-0.019308	0.264701	0.816964
	N369	N	-0.004331	0.184309	0.744898
	C370	C	-0.005734	0.182840	0.757070
	H371	H	-0.006101	0.173377	0.761331
	C372	C	0.086664	0.046527	0.290725
	C373	C	0.089032	0.057016	0.282922
	C374	C	0.080243	0.067053	0.282191
	C375	C	0.068696	0.067116	0.289230
	C376	C	0.066349	0.056498	0.296907
	C377	C	0.075081	0.046480	0.297654
	C378	C	0.059206	0.077810	0.288782
	C379	C	0.051966	0.081379	0.299802
	C380	C	0.042726	0.090982	0.299488
	C381	C	0.040246	0.097576	0.288110
	C382	C	0.047633	0.094273	0.277136
	C383	C	0.056892	0.084640	0.277482
	H384	H	0.037296	0.093467	0.308151
	H385	H	0.072937	0.038456	0.303673
	H386	H	0.045963	0.099284	0.268251
	H387	H	0.097920	0.057237	0.277488
	H388	H	0.053762	0.076670	0.308827
	H389	H	0.057400	0.055996	0.302179
	H390	H	0.082473	0.075130	0.276283
	H391	H	0.062225	0.082122	0.268770
	N392	N	0.106493	0.035129	0.285886
	C393	C	0.095779	0.035889	0.291994
	H394	H	0.092989	0.028433	0.298737
	N395	N	0.022885	0.109611	0.297604
	C396	C	0.030062	0.107359	0.287709
	H397	H	0.028599	0.112040	0.278458
	C398	C	0.014129	0.240198	0.191788
	C399	C	0.007293	0.229635	0.188014
	C400	C	0.005201	0.219676	0.196400
	C401	C	0.009773	0.219768	0.209000
	C402	C	0.016588	0.230384	0.212738
	C403	C	0.018746	0.240338	0.204347
	C404	C	0.007415	0.209099	0.217963
	C405	C	0.004774	0.211173	0.231133
	C406	C	0.002454	0.201207	0.239459
	C407	C	0.002721	0.188634	0.235028
	C408	C	0.005432	0.186492	0.221899
	C409	C	0.007693	0.196480	0.213592
	H410	H	0.000358	0.203092	0.249561
	H411	H	0.024042	0.248394	0.207496
	H412	H	0.005762	0.176875	0.218227
	H413	H	0.003569	0.229334	0.178390
	H414	H	0.004260	0.220782	0.234827
	H415	H	0.020439	0.230695	0.222307
	H416	H	-0.000332	0.211789	0.193255
	H417	H	0.009973	0.194500	0.203554
	N418	N	0.011867	0.250802	0.171616
	C419	C	0.016313	0.250798	0.182978
	H420	H	0.022026	0.258505	0.186632
	N421	N	-0.002355	0.179801	0.255718
	C422	C	0.000270	0.178030	0.243733
	H423	H	0.000820	0.168483	0.239495
	C424	C	0.896189	0.047970	0.282494
	C425	C	0.890324	0.058858	0.287960
	C426	C	0.896733	0.070169	0.288776
	C427	C	0.909312	0.071187	0.284195
	C428	C	0.915038	0.060296	0.278516
	C429	C	0.908665	0.048981	0.277684
	C430	C	0.916482	0.083074	0.285634
	C431	C	0.925641	0.086730	0.276448
	C432	C	0.932856	0.097412	0.278209
	C433	C	0.931258	0.105010	0.289272
	C434	C	0.921905	0.101601	0.298330
	C435	C	0.914713	0.090917	0.296538
	H436	H	0.939927	0.099942	0.271009
	H437	H	0.913431	0.040732	0.273397
	H438	H	0.920432	0.107317	0.306948
	H439	H	0.880648	0.058332	0.291638
	H440	H	0.927035	0.081176	0.267713
	H441	H	0.924786	0.060618	0.275040
	H442	H	0.891843	0.078425	0.292903
	H443	H	0.907856	0.088360	0.303922
	N444	N	0.878578	0.034431	0.286830
	C445	C	0.889768	0.035806	0.282044
	H446	H	0.895142	0.027814	0.277590
	N447	N	0.948567	0.118608	0.284011
	C448	C	0.939389	0.115819	0.291690
	H449	H	0.937610	0.121058	0.300742
	C450	C	0.162942	-0.004526	0.637693
	C451	C	0.155596	-0.014182	0.632648
	C452	C	0.154013	-0.015481	0.619487
	C453	C	0.159655	-0.007209	0.610657
	C454	C	0.167431	0.002123	0.615701
	C455	C	0.169012	0.003473	0.628914
	C456	C	0.156853	-0.008146	0.596699
	C457	C	0.165957	-0.006291	0.586854
	C458	C	0.162877	-0.007138	0.573900
	C459	C	0.150493	-0.009773	0.570214
	C460	C	0.141367	-0.011571	0.580035
	C461	C	0.144481	-0.010794	0.592905
	H462	H	0.170064	-0.005743	0.566460
	H463	H	0.174835	0.010927	0.632554
	H464	H	0.131705	-0.013566	0.577509
	H465	H	0.150979	-0.020634	0.639205
	H466	H	0.175623	-0.004381	0.589438
	H467	H	0.171936	0.008644	0.609154
	H468	H	0.148359	-0.023116	0.615946
	H469	H	0.137125	-0.011954	0.600217
	N470	N	0.157287	-0.009793	0.659275
	C471	C	0.163629	-0.002701	0.651718
	H472	H	0.169276	0.005091	0.655276
	N473	N	0.154166	-0.009326	0.546998
	C474	C	0.146631	-0.010560	0.556764
	H475	H	0.136498	-0.012277	0.555363
	C476	C	0.150419	-0.012548	0.427889
	C477	C	0.162958	-0.014600	0.423390
	C478	C	0.165981	-0.014426	0.410257
	C479	C	0.156650	-0.012066	0.401064
	C480	C	0.144117	-0.010055	0.405666
	C481	C	0.141063	-0.010318	0.418703
	C482	C	0.159376	-0.011688	0.386953
	C483	C	0.153246	-0.002562	0.379342
	C484	C	0.154723	-0.002578	0.366045
	C485	C	0.162414	-0.011762	0.359628
	C486	C	0.168954	-0.020620	0.367192
	C487	C	0.167496	-0.020543	0.380558
	H488	H	0.149753	0.004539	0.360461
	H489	H	0.131282	-0.008762	0.421862
	H490	H	0.175066	-0.027717	0.362487
	H491	H	0.170313	-0.016328	0.430338
	H492	H	0.147302	0.004725	0.383975
	H493	H	0.136626	-0.008529	0.398830
	H494	H	0.175755	-0.015889	0.407029
	H495	H	0.172384	-0.027676	0.386173
	N496	N	0.154324	-0.014043	0.450869
	C497	C	0.146616	-0.012676	0.441548
	H498	H	0.136369	-0.011311	0.443549
	N499	N	0.156240	-0.004213	0.339141
	C500	C	0.162960	-0.012166	0.345456
	H501	H	0.168760	-0.019677	0.340738
	C502	C	0.060218	0.879098	0.500328
	C503	C	0.067375	0.880363	0.488884
	C504	C	0.076785	0.889311	0.487822
	C505	C	0.079575	0.897321	0.498165
	C506	C	0.072638	0.895753	0.509717
	C507	C	0.063139	0.886927	0.510758
	C508	C	0.089053	0.907454	0.496928
	C509	C	0.097570	0.910017	0.506763
	C510	C	0.105877	0.919997	0.505876
	C511	C	0.105973	0.927979	0.495141
	C512	C	0.097646	0.925306	0.485184
	C513	C	0.089451	0.915241	0.486033
	H514	H	0.112266	0.921849	0.513648
	H515	H	0.057742	0.886150	0.519694
	H516	H	0.097536	0.931328	0.476797
	H517	H	0.065301	0.874392	0.480727
	H518	H	0.097684	0.904008	0.515161
	H519	H	0.074460	0.901894	0.517818
	H520	H	0.082156	0.890115	0.478872
	H521	H	0.082899	0.913592	0.478352
	N522	N	0.046956	0.862594	0.492393
	C523	C	0.049630	0.870382	0.501392
	H524	H	0.043893	0.870943	0.510350
	N525	N	0.122211	0.941450	0.503057
	C526	C	0.114096	0.939046	0.494421
	H527	H	0.112771	0.945331	0.486155
	C528	C	0.833589	-0.002803	0.364021
	C529	C	0.841384	-0.012476	0.368994
	C530	C	0.843035	-0.013690	0.382144
	C531	C	0.837015	-0.005313	0.391041
	C532	C	0.828811	0.004043	0.386066
	C533	C	0.827159	0.005307	0.372862
	C534	C	0.839853	-0.006193	0.404994
	C535	C	0.830653	-0.004243	0.414855
	C536	C	0.833757	-0.005093	0.427803
	C537	C	0.846254	-0.007837	0.431470
	C538	C	0.855471	-0.009735	0.421634
	C539	C	0.852338	-0.008953	0.408770
	H540	H	0.826498	-0.003621	0.435253
	H541	H	0.820989	0.012776	0.369280
	H542	H	0.865220	-0.011816	0.424143
	H543	H	0.846292	-0.019016	0.362389
	H544	H	0.820903	-0.002254	0.412284
	H545	H	0.824007	0.010645	0.392664
	H546	H	0.849041	-0.021345	0.385624
	H547	H	0.859755	-0.010198	0.401452
	N548	N	0.839410	-0.008359	0.342408
	C549	C	0.832777	-0.001120	0.350003
	H550	H	0.826754	0.006669	0.346489
	N551	N	0.842559	-0.007308	0.454701
	C552	C	0.850144	-0.008645	0.444913
	H553	H	0.860352	-0.010469	0.446290
	C554	C	0.940800	0.880085	0.502039
	C555	C	0.933535	0.881697	0.513438
	C556	C	0.923791	0.890820	0.514395
	C557	C	0.920761	0.898668	0.503985
	C558	C	0.927816	0.896753	0.492478
	C559	C	0.937646	0.887750	0.491542
	C560	C	0.910908	0.908986	0.505112
	C561	C	0.902336	0.911486	0.495228
	C562	C	0.893663	0.921627	0.496013
	C563	C	0.893238	0.929836	0.506691
	C564	C	0.901628	0.927234	0.516696
	C565	C	0.910190	0.917011	0.515949
	H566	H	0.887238	0.923425	0.488203
	H567	H	0.943120	0.886705	0.482639
	H568	H	0.901492	0.933434	0.525039
	H569	H	0.935786	0.875855	0.521644
	H570	H	0.902472	0.905302	0.486871
	H571	H	0.925810	0.902760	0.484329
	H572	H	0.918343	0.891895	0.523313
	H573	H	0.916775	0.915414	0.523664
	N574	N	0.954621	0.863511	0.510139
	C575	C	0.951716	0.871176	0.501084
	H576	H	0.957488	0.871473	0.492158
	N577	N	0.876503	0.943399	0.498658
	C578	C	0.884722	0.941064	0.507300
	H579	H	0.885764	0.947478	0.515549
	C580	C	0.835299	-0.007867	0.642170
	C581	C	0.842225	0.001440	0.635760
	C582	C	0.843598	0.001383	0.622452
	C583	C	0.838127	-0.007948	0.614822
	C584	C	0.830738	-0.016929	0.621216
	C585	C	0.829390	-0.016933	0.634591
	C586	C	0.840753	-0.008369	0.600684
	C587	C	0.831534	-0.011044	0.591562
	C588	C	0.834459	-0.011287	0.578403
	C589	C	0.846793	-0.008991	0.573802
	C590	C	0.856041	-0.006424	0.582915
	C591	C	0.853078	-0.006092	0.595978
	H592	H	0.827187	-0.013269	0.571514
	H593	H	0.823863	-0.024129	0.639290
	H594	H	0.865668	-0.004665	0.579677
	H595	H	0.846682	0.008715	0.641356
	H596	H	0.821909	-0.012708	0.594868
	H597	H	0.826358	-0.024216	0.615589
	H598	H	0.848939	0.008767	0.617826
	H599	H	0.860502	-0.004309	0.602752
	N600	N	0.840943	0.000040	0.662678
	C601	C	0.834880	-0.008170	0.656342
	H602	H	0.829662	-0.015752	0.661043
	N603	N	0.842853	-0.010911	0.550846
	C604	C	0.850509	-0.009239	0.560116
	H605	H	0.860638	-0.007708	0.558041
	C606	C	0.860664	-0.005259	0.697199
	C607	C	0.850536	0.014268	0.723845
	H608	H	0.853411	0.013099	0.733810
	H609	H	0.844435	0.022749	0.723261
	C610	C	0.864611	-0.007477	0.711341
	C611	C	0.851525	0.006465	0.696279
	C612	C	0.862620	0.016398	0.715366
	C613	C	0.843436	0.002472	0.719200
	C614	C	0.852600	-0.009309	0.719870
	C615	C	0.858496	0.018239	0.701308
	C616	C	0.871394	0.004483	0.716184
	C617	C	0.839624	0.004477	0.704951
	H618	H	0.847568	-0.017666	0.716829
	H619	H	0.866673	0.019888	0.694979
	H620	H	0.874249	0.003133	0.726144
	H621	H	0.833171	0.012704	0.704352
	H622	H	0.855305	-0.010833	0.729843
	H623	H	0.852246	0.026631	0.700722
	H624	H	0.880082	0.005552	0.710445
	H625	H	0.834443	-0.003724	0.701753
	H626	H	0.869139	-0.003778	0.691198
	H627	H	0.856104	-0.013593	0.693443
	C628	C	0.874008	-0.018977	0.712141
	O629	O	0.884707	-0.017576	0.715833
	N630	N	0.869560	-0.030720	0.708291
	H631	H	0.860526	-0.031414	0.705177
	C632	C	0.848064	0.008862	0.682076
	O633	O	0.851269	0.018459	0.676723
	N634	N	0.841532	-0.000537	0.675664
	H635	H	0.838361	-0.008126	0.680609
	C636	C	0.869603	0.028285	0.720092
	O637	O	0.865513	0.034650	0.729052
	N638	N	0.880789	0.030839	0.713324
	H639	H	0.883417	0.025033	0.705837
	C640	C	0.831324	-0.000318	0.727349
	O641	O	0.825389	-0.009699	0.724932
	N642	N	0.827610	0.008067	0.737233
	H643	H	0.832667	0.015937	0.738870
	C644	C	0.147739	-0.016827	0.722260
	C645	C	0.141294	0.002528	0.694809
	H646	H	0.147621	0.009312	0.690339
	H647	H	0.132478	0.002852	0.689469
	C648	C	0.157200	-0.007451	0.716112
	C649	C	0.135147	-0.016562	0.714870
	C650	C	0.147278	-0.011012	0.694162
	C651	C	0.138569	0.006656	0.708993
	C652	C	0.151226	0.006142	0.716364
	C653	C	0.137858	-0.020241	0.700627
	C654	C	0.159740	-0.011397	0.701777
	C655	C	0.129428	-0.002827	0.715269
	H656	H	0.149361	0.009478	0.726187
	H657	H	0.141973	-0.029790	0.699765
	H658	H	0.166635	-0.005052	0.697497
	H659	H	0.120482	-0.002860	0.710151
	H660	H	0.157907	0.012657	0.711946
	H661	H	0.128978	-0.020137	0.695379
	H662	H	0.164009	-0.020930	0.701315
	H663	H	0.127434	-0.000215	0.725312
	H664	H	0.152046	-0.026336	0.722037
	H665	H	0.145677	-0.014404	0.732319
	C666	C	0.169908	-0.007766	0.723351
	O667	O	0.179781	-0.011008	0.717971
	N668	N	0.169198	-0.004105	0.736274
	H669	H	0.160595	-0.001591	0.740246
	C670	C	0.125331	-0.025479	0.721089
	O671	O	0.116214	-0.021153	0.727111
	N672	N	0.127367	-0.038446	0.719155
	H673	H	0.135653	-0.041610	0.714928
	C674	C	0.149612	-0.015298	0.680004
	O675	O	0.144900	-0.024852	0.675985
	N676	N	0.157052	-0.007646	0.672148
	H677	H	0.161369	-0.000092	0.676061
	C678	C	0.133197	0.020505	0.709095
	O679	O	0.139573	0.028876	0.704654
	N680	N	0.121030	0.022818	0.714303
	H681	H	0.116028	0.015606	0.718084
	C682	C	-0.005149	0.311406	0.861563
	C683	C	-0.024167	0.284625	0.855429
	H684	H	-0.023075	0.275181	0.859476
	H685	H	-0.032518	0.284536	0.849375
	C686	C	-0.002624	0.297986	0.867104
	C687	C	-0.016888	0.311493	0.852769
	C688	C	-0.026513	0.294184	0.866712
	C689	C	-0.012340	0.288184	0.847217
	C690	C	-0.000535	0.288339	0.855890
	C691	C	-0.028645	0.307481	0.860939
	C692	C	-0.014561	0.294154	0.875103
	C693	C	-0.014630	0.301740	0.841747
	H694	H	0.007717	0.290660	0.849934
	H695	H	-0.030471	0.314595	0.868443
	H696	H	-0.013009	0.284732	0.879147
	H697	H	-0.022900	0.301756	0.835573
	H698	H	0.001323	0.278978	0.859915
	H699	H	-0.037029	0.307465	0.854919
	H700	H	-0.015912	0.300687	0.883224
	H701	H	-0.006506	0.304269	0.835704
	H702	H	-0.006828	0.318148	0.869480
	H703	H	0.003179	0.314461	0.856173
	C704	C	0.008968	0.297951	0.876053
	O705	O	0.007655	0.295858	0.887438
	N706	N	0.020725	0.300404	0.870236
	H707	H	0.021214	0.302680	0.860752
	C708	C	-0.019700	0.324948	0.847518
	O709	O	-0.029936	0.330164	0.849571
	N710	N	-0.009863	0.330954	0.840963
	H711	H	-0.001792	0.325990	0.838469
	C712	C	-0.038265	0.290284	0.874910
	O713	O	-0.043612	0.280515	0.872809
	N714	N	-0.042117	0.298724	0.884687
	H715	H	-0.036954	0.306580	0.886091
	C716	C	-0.010031	0.278703	0.835890
	O717	O	-0.008707	0.282460	0.824977
	N718	N	-0.009306	0.265924	0.839207
	H719	H	-0.009687	0.263478	0.848661
	C720	C	0.136995	-0.010522	0.304585
	C721	C	0.145663	0.008815	0.277957
	H722	H	0.142700	0.007347	0.268070
	H723	H	0.151180	0.017410	0.278342
	C724	C	0.133311	-0.013053	0.290423
	C725	C	0.145180	0.001452	0.305549
	C726	C	0.133427	0.010807	0.286427
	C727	C	0.153688	-0.002698	0.282643
	C728	C	0.145515	-0.014730	0.281951
	C729	C	0.137332	0.012969	0.300493
	C730	C	0.125608	-0.001332	0.285577
	C731	C	0.157249	-0.000339	0.296923
	H732	H	0.151209	-0.022875	0.285053
	H733	H	0.129009	0.014517	0.306790
	H734	H	0.122879	-0.002891	0.275612
	H735	H	0.163026	0.008071	0.297522
	H736	H	0.142983	-0.016507	0.271974
	H737	H	0.142929	0.021511	0.301095
	H738	H	0.116831	-0.000388	0.291303
	H739	H	0.163080	-0.008319	0.300175
	H740	H	0.128382	-0.009176	0.310548
	H741	H	0.142204	-0.018661	0.308371
	C742	C	0.124779	-0.024744	0.289555
	O743	O	0.114070	-0.023613	0.285627
	N744	N	0.129946	-0.036322	0.293602
	H745	H	0.138960	-0.036810	0.296883
	C746	C	0.148373	0.004126	0.319773
	O747	O	0.144259	0.013627	0.325175
	N748	N	0.155734	-0.004944	0.326153
	H749	H	0.159644	-0.012426	0.321167
	C750	C	0.125544	0.022417	0.281634
	O751	O	0.129121	0.028641	0.272590
	N752	N	0.114181	0.024887	0.288401
	H753	H	0.111967	0.019194	0.295925
	C754	C	0.166120	-0.005147	0.274604
	O755	O	0.173898	-0.012896	0.278302
	N756	N	0.167745	0.001403	0.263110
	H757	H	0.161209	0.008074	0.260501
	C758	C	0.003633	0.306689	0.144472
	C759	C	0.025748	0.280820	0.147722
	H760	H	0.025423	0.271506	0.143199
	H761	H	0.034438	0.280975	0.153271
	C762	C	0.002170	0.293419	0.138227
	C763	C	0.015934	0.307143	0.152388
	C764	C	0.026392	0.290903	0.136894
	C765	C	0.014087	0.283423	0.156809
	C766	C	0.001774	0.283264	0.148887
	C767	C	0.027522	0.304077	0.143262
	C768	C	0.013941	0.290549	0.129286
	C769	C	0.015336	0.296834	0.162890
	H770	H	-0.006309	0.284903	0.155478
	H771	H	0.028204	0.311530	0.136106
	H772	H	0.013119	0.281229	0.124800
	H773	H	0.023944	0.297006	0.168576
	H774	H	0.000657	0.273989	0.144437
	H775	H	0.036258	0.304206	0.148758
	H776	H	0.014025	0.297433	0.121516
	H777	H	0.007367	0.298901	0.169535
	H778	H	0.003862	0.313755	0.136857
	H779	H	-0.004580	0.308695	0.150781
	C780	C	-0.009954	0.293244	0.130041
	O781	O	-0.009143	0.291843	0.118475
	N782	N	-0.021561	0.294909	0.136691
	H783	H	-0.021735	0.296351	0.146379
	C784	C	0.018138	0.320251	0.158741
	O785	O	0.028038	0.322155	0.164062
	N786	N	0.008667	0.329676	0.157806
	H787	H	0.000154	0.327646	0.154072
	C788	C	0.038017	0.287921	0.127817
	O789	O	0.044999	0.278848	0.129552
	N790	N	0.039652	0.296200	0.117557
	H791	H	0.033461	0.303670	0.116760
	C792	C	0.013271	0.273471	0.167690
	O793	O	0.012039	0.276781	0.178829
	N794	N	0.013581	0.260803	0.163723
	H795	H	0.014244	0.258705	0.154157
	C796	C	0.848716	-0.017106	0.279455
	C797	C	0.854470	0.003084	0.306486
	H798	H	0.847843	0.010017	0.310912
	H799	H	0.863328	0.003554	0.311714
	C800	C	0.838839	-0.007514	0.285547
	C801	C	0.861377	-0.016639	0.286685
	C802	C	0.849180	-0.010419	0.307430
	C803	C	0.856839	0.006767	0.292204
	C804	C	0.844126	0.006054	0.284991
	C805	C	0.859001	-0.019867	0.301010
	C806	C	0.836652	-0.011007	0.299972
	C807	C	0.866395	-0.002934	0.285987
	H808	H	0.845709	0.009070	0.275090
	H809	H	0.855376	-0.029377	0.302079
	H810	H	0.829486	-0.004510	0.304230
	H811	H	0.875398	-0.002830	0.291000
	H812	H	0.837162	0.012723	0.289373
	H813	H	0.867934	-0.019624	0.306150
	H814	H	0.832865	-0.020511	0.300645
	H815	H	0.868150	-0.000639	0.275882
	H816	H	0.844894	-0.026597	0.279892
	H817	H	0.850562	-0.015009	0.269337
	C818	C	0.826060	-0.008016	0.278468
	O819	O	0.816367	-0.010876	0.284062
	N820	N	0.826501	-0.005027	0.265415
	H821	H	0.834950	-0.002704	0.261300
	C822	C	0.871590	-0.025770	0.280512
	O823	O	0.880402	-0.021653	0.274277
	N824	N	0.870268	-0.038663	0.282742
	H825	H	0.862189	-0.041679	0.287125
	C826	C	0.847218	-0.014298	0.321670
	O827	O	0.852447	-0.023765	0.325745
	N828	N	0.839489	-0.006420	0.329534
	H829	H	0.834780	0.001077	0.325611
	C830	C	0.861531	0.020595	0.291814
	O831	O	0.854789	0.029124	0.296189
	N832	N	0.873543	0.022694	0.286448
	H833	H	0.878835	0.015350	0.282688
	C834	C	-0.008663	0.844756	0.515668
	C835	C	0.010916	0.844401	0.486981
	H836	H	0.009732	0.850458	0.478612
	H837	H	0.019152	0.838168	0.484985
	C838	C	-0.011057	0.853092	0.503765
	C839	C	0.003388	0.836147	0.513459
	C840	C	0.013015	0.852848	0.498897
	C841	C	-0.000835	0.836032	0.489176
	C842	C	-0.012857	0.844560	0.491823
	C843	C	0.015114	0.844431	0.510826
	C844	C	0.000833	0.861208	0.501338
	C845	C	0.001423	0.827747	0.501311
	H846	H	-0.021012	0.838526	0.493239
	H847	H	0.016952	0.850662	0.518928
	H848	H	-0.000693	0.867367	0.493071
	H849	H	0.009721	0.821473	0.499685
	H850	H	-0.014914	0.850725	0.483731
	H851	H	0.023485	0.838233	0.509398
	H852	H	0.002140	0.867446	0.509614
	H853	H	-0.006657	0.821639	0.502926
	H854	H	-0.007693	0.850899	0.524046
	H855	H	-0.016684	0.838693	0.517655
	C856	C	-0.022792	0.862073	0.505889
	O857	O	-0.021820	0.873415	0.504851
	N858	N	-0.034384	0.856479	0.508725
	H859	H	-0.034778	0.847022	0.510327
	C860	C	0.005383	0.827909	0.525628
	O861	O	0.004363	0.816556	0.525458
	N862	N	0.008559	0.834719	0.536579
	H863	H	0.008887	0.844300	0.535937
	C864	C	0.024433	0.861599	0.496779
	O865	O	0.023060	0.872974	0.497853
	N866	N	0.036222	0.855767	0.493896
	H867	H	0.036949	0.846277	0.492290
	C868	C	-0.002540	0.827677	0.476992
	O869	O	-0.001129	0.816303	0.477142
	N870	N	-0.005946	0.834415	0.466053
	H871	H	-0.006605	0.844013	0.466717
	C872	C	0.754172	-0.002505	0.809445
	C873	C	0.754606	0.009306	0.803392
	C874	C	0.764007	0.011885	0.794250
	C875	C	0.773398	0.002785	0.790634
	C876	C	0.772826	-0.009075	0.796620
	C877	C	0.763486	-0.011656	0.805825
	C878	C	0.783589	0.005586	0.780983
	C879	C	0.787909	-0.003488	0.771849
	C880	C	0.797554	-0.000936	0.762967
	C881	C	0.803427	0.010824	0.762823
	C882	C	0.799107	0.019953	0.771878
	C883	C	0.789403	0.017398	0.780694
	H884	H	0.800673	-0.008110	0.756008
	H885	H	0.763381	-0.020857	0.810340
	H886	H	0.803468	0.029113	0.771986
	H887	H	0.747458	0.016497	0.805971
	H888	H	0.783461	-0.012602	0.771582
	H889	H	0.780026	-0.016253	0.794204
	H890	H	0.763970	0.021040	0.789635
	H891	H	0.786434	0.024555	0.787720
	N892	N	0.735733	0.002962	0.822545
	C893	C	0.744448	-0.005210	0.819341
	H894	H	0.745009	-0.014548	0.823885
	N895	N	0.817692	0.005262	0.745228
	C896	C	0.813836	0.013471	0.753656
	H897	H	0.818231	0.022735	0.754444
	C898	C	0.946166	0.900431	0.705666
	C899	C	0.938562	0.900136	0.716909
	C900	C	0.928194	0.908447	0.718703
	C901	C	0.924847	0.917361	0.709316
	C902	C	0.932378	0.917461	0.697990
	C903	C	0.942801	0.909259	0.696220
	C904	C	0.914041	0.926599	0.711242
	C905	C	0.905927	0.929808	0.701154
	C906	C	0.896293	0.938972	0.702714
	C907	C	0.894344	0.945460	0.714444
	C908	C	0.902260	0.942111	0.724630
	C909	C	0.911820	0.932863	0.723076
	H910	H	0.890261	0.941338	0.694730
	H911	H	0.948487	0.909685	0.687433
	H912	H	0.900953	0.946980	0.733786
	H913	H	0.940938	0.893330	0.724288
	H914	H	0.907166	0.924929	0.691997
	H915	H	0.930182	0.924345	0.690638
	H916	H	0.922444	0.907942	0.727444
	H917	H	0.917977	0.930703	0.731020
	N918	N	0.960570	0.883463	0.711774
	C919	C	0.957426	0.892083	0.703735
	H920	H	0.963124	0.893531	0.694909
	N921	N	0.877331	0.958857	0.706814
	C922	C	0.884778	0.955780	0.715930
	H923	H	0.884496	0.960910	0.725160
	C924	C	0.055177	0.892261	0.716544
	C925	C	0.067084	0.887368	0.720113
	C926	C	0.077473	0.895143	0.721155
	C927	C	0.076490	0.908192	0.718734
	C928	C	0.064488	0.913053	0.715344
	C929	C	0.054107	0.905308	0.714257
	C930	C	0.087628	0.916561	0.719388
	C931	C	0.086335	0.929132	0.723809
	C932	C	0.096549	0.937192	0.723728
	C933	C	0.108618	0.933083	0.719206
	C934	C	0.110057	0.920449	0.715080
	C935	C	0.099819	0.912401	0.715199
	H936	H	0.095222	0.946878	0.727085
	H937	H	0.045010	0.909344	0.711535
	H938	H	0.119273	0.917013	0.711565
	H939	H	0.068114	0.877342	0.722047
	H940	H	0.077185	0.932596	0.727485
	H941	H	0.063377	0.923027	0.713197
	H942	H	0.086487	0.891092	0.724093
	H943	H	0.101167	0.902811	0.711598
	N944	N	0.044840	0.872201	0.716759
	C945	C	0.044169	0.884175	0.714962
	H946	H	0.035445	0.888950	0.711721
	N947	N	0.117672	0.953547	0.721313
	C948	C	0.119209	0.941843	0.718247
	H949	H	0.128248	0.938062	0.714194
	C950	C	0.243413	0.008223	0.804319
	C951	C	0.232145	0.002847	0.808846
	C952	C	0.221857	0.001440	0.800865
	C953	C	0.222301	0.005273	0.787945
	C954	C	0.233647	0.010551	0.783431
	C955	C	0.243937	0.012027	0.791414
	C956	C	0.211196	0.003823	0.779483
	C957	C	0.212673	0.000341	0.766452
	C958	C	0.202265	-0.000997	0.758601
	C959	C	0.189838	0.001150	0.763392
	C960	C	0.188302	0.004664	0.776392
	C961	C	0.198721	0.005936	0.784225
	H962	H	0.203682	-0.003748	0.748593
	H963	H	0.252548	0.016169	0.787681
	H964	H	0.178822	0.006437	0.780339
	H965	H	0.231538	-0.000252	0.818747
	H966	H	0.222131	-0.001585	0.762506
	H967	H	0.234280	0.013778	0.773574
	H968	H	0.213389	-0.002951	0.804612
	H969	H	0.197234	0.008895	0.794154
	N970	N	0.253841	0.006204	0.824485
	C971	C	0.254282	0.009844	0.812767
	H972	H	0.262531	0.014517	0.808537
	N973	N	0.179889	-0.003381	0.743313
	C974	C	0.178757	-0.000100	0.755184
	H975	H	0.169411	0.002021	0.759685
	C976	C	0.097885	0.300549	0.935943
	C977	C	0.095198	0.288574	0.930961
	C978	C	0.085345	0.287004	0.922429
	C979	C	0.077766	0.297310	0.918394
	C980	C	0.080609	0.309291	0.923320
	C981	C	0.090377	0.310880	0.931890
	C982	C	0.067006	0.295805	0.909494
	C983	C	0.064310	0.304860	0.900026
	C984	C	0.053915	0.303850	0.892111
	C985	C	0.045636	0.293728	0.893296
	C986	C	0.048401	0.284538	0.902584
	C987	C	0.058848	0.285539	0.910447
	H988	H	0.052043	0.311023	0.884956
	H989	H	0.092234	0.320246	0.935564
	H990	H	0.042152	0.276630	0.903702
	H991	H	0.100936	0.280481	0.933893
	H992	H	0.070584	0.312729	0.898773
	H993	H	0.074826	0.317425	0.920613
	H994	H	0.083590	0.277660	0.918634
	H995	H	0.060549	0.278453	0.917732
	N996	N	0.115389	0.293602	0.949134
	C997	C	0.107959	0.302521	0.945230
	H998	H	0.108909	0.312271	0.948761
	N999	N	0.031678	0.301181	0.876826
	C1000	C	0.034306	0.292873	0.885355
	H1001	H	0.028211	0.284779	0.887140
	C1002	C	0.886186	0.296596	0.960073
	C1003	C	0.886576	0.307583	0.952595
	C1004	C	0.895371	0.308698	0.942519
	C1005	C	0.904206	0.298906	0.939382
	C1006	C	0.903553	0.287798	0.946689
	C1007	C	0.894802	0.286677	0.956809
	C1008	C	0.914092	0.300416	0.929071
	C1009	C	0.918069	0.290392	0.920859
	C1010	C	0.927600	0.291847	0.911537
	C1011	C	0.933684	0.303405	0.910034
	C1012	C	0.929681	0.313475	0.918147
	C1013	C	0.920121	0.312009	0.927397
	H1014	H	0.930484	0.283971	0.905309
	H1015	H	0.894710	0.278096	0.962443
	H1016	H	0.934207	0.322510	0.917198
	H1017	H	0.879967	0.315339	0.954863
	H1018	H	0.913467	0.281386	0.921687
	H1019	H	0.910298	0.280102	0.944639
	H1020	H	0.895347	0.317264	0.936862
	H1021	H	0.917476	0.319884	0.933707
	N1022	N	0.869674	0.304645	0.974487
	C1023	C	0.877466	0.295610	0.971245
	H1024	H	0.878053	0.286772	0.976710
	N1025	N	0.947965	0.296231	0.892836
	C1026	C	0.944021	0.305091	0.900535
	H1027	H	0.948385	0.314416	0.900395
	C1028	C	-0.012675	0.431286	0.834060
	C1029	C	-0.002127	0.425987	0.827327
	C1030	C	-0.000426	0.412917	0.826037
	C1031	C	-0.009120	0.404489	0.831452
	C1032	C	-0.019800	0.409919	0.837941
	C1033	C	-0.021561	0.422936	0.839193
	C1034	C	-0.007114	0.390454	0.831017
	C1035	C	-0.017437	0.382300	0.831255
	C1036	C	-0.015722	0.369265	0.832184
	C1037	C	-0.003545	0.363640	0.832758
	C1038	C	0.006839	0.371642	0.831876
	C1039	C	0.005078	0.384715	0.831055
	H1040	H	-0.023912	0.363276	0.832619
	H1041	H	-0.029814	0.426728	0.844445
	H1042	H	0.016355	0.367555	0.832184
	H1043	H	0.004802	0.432267	0.823182
	H1044	H	-0.027003	0.386207	0.830653
	H1045	H	-0.026649	0.403837	0.842495
	H1046	H	0.007762	0.409178	0.820647
	H1047	H	0.013311	0.390628	0.830904
	N1048	N	-0.006035	0.453023	0.833165
	C1049	C	-0.014360	0.444945	0.836444
	H1050	H	-0.023011	0.447919	0.841878
	N1051	N	-0.011509	0.343309	0.837801
	C1052	C	-0.001887	0.349953	0.834938
	H1053	H	0.007825	0.345973	0.834920
	C1054	C	0.243414	-0.006017	0.191807
	C1055	C	0.235001	0.004436	0.190973
	C1056	C	0.224860	0.006150	0.199648
	C1057	C	0.222508	-0.002513	0.209569
	C1058	C	0.231077	-0.012880	0.210447
	C1059	C	0.241281	-0.014586	0.201821
	C1060	C	0.211373	-0.000802	0.218599
	C1061	C	0.211670	-0.004953	0.231415
	C1062	C	0.201204	-0.003427	0.239735
	C1063	C	0.189888	0.002406	0.235676
	C1064	C	0.189527	0.006617	0.222915
	C1065	C	0.199980	0.005016	0.214612
	H1066	H	0.201720	-0.006725	0.249568
	H1067	H	0.247656	-0.022726	0.202700
	H1068	H	0.180892	0.011091	0.219487
	H1069	H	0.236532	0.011281	0.183425
	H1070	H	0.220321	-0.009246	0.235006
	H1071	H	0.229544	-0.019894	0.217823
	H1072	H	0.218769	0.014500	0.198837
	H1073	H	0.199196	0.008080	0.204736
	N1074	N	0.255063	-0.000935	0.172537
	C1075	C	0.253929	-0.008042	0.182408
	H1076	H	0.260413	-0.016149	0.183989
	N1077	N	0.178473	-0.000509	0.255717
	C1078	C	0.178734	0.004056	0.244325
	H1079	H	0.170477	0.009199	0.240475
	C1080	C	0.055543	0.896533	0.297158
	C1081	C	0.063118	0.895725	0.285893
	C1082	C	0.073358	0.903610	0.284006
	C1083	C	0.076599	0.912597	0.293314
	C1084	C	0.069117	0.913189	0.304676
	C1085	C	0.058826	0.905406	0.306543
	C1086	C	0.087201	0.921458	0.291245
	C1087	C	0.095236	0.924755	0.301275
	C1088	C	0.104607	0.933651	0.299577
	C1089	C	0.106371	0.939750	0.287748
	C1090	C	0.098585	0.936256	0.277603
	C1091	C	0.089286	0.927285	0.279301
	H1092	H	0.110556	0.936123	0.307528
	H1093	H	0.053168	0.906215	0.315350
	H1094	H	0.099759	0.940821	0.268369
	H1095	H	0.060817	0.888864	0.278565
	H1096	H	0.094129	0.920179	0.310511
	H1097	H	0.071229	0.920138	0.311975
	H1098	H	0.079082	0.902709	0.275247
	H1099	H	0.083203	0.925040	0.271384
	N1100	N	0.041304	0.880090	0.291113
	C1101	C	0.044399	0.888659	0.299163
	H1102	H	0.038741	0.890438	0.308030
	N1103	N	0.122759	0.953261	0.295221
	C1104	C	0.115516	0.949916	0.286123
	H1105	H	0.115658	0.954707	0.276778
	C1106	C	0.107100	0.297586	0.038010
	C1107	C	0.101621	0.309172	0.042209
	C1108	C	0.092775	0.309762	0.052331
	C1109	C	0.088895	0.298829	0.058786
	C1110	C	0.094614	0.287281	0.054712
	C1111	C	0.103484	0.286658	0.044585
	C1112	C	0.079011	0.299536	0.069285
	C1113	C	0.079270	0.291445	0.079960
	C1114	C	0.069917	0.292168	0.089633
	C1115	C	0.059810	0.301040	0.089104
	C1116	C	0.059499	0.309145	0.078471
	C1117	C	0.068846	0.308395	0.068834
	H1118	H	0.070369	0.285833	0.097780
	H1119	H	0.107633	0.277596	0.041594
	H1120	H	0.051772	0.316046	0.077763
	H1121	H	0.104386	0.317778	0.037430
	H1122	H	0.087060	0.284636	0.080809
	H1123	H	0.091810	0.278621	0.059360
	H1124	H	0.088937	0.318908	0.055447
	H1125	H	0.068111	0.314600	0.060622
	N1126	N	0.118657	0.306797	0.020477
	C1127	C	0.116063	0.296892	0.026945
	H1128	H	0.119899	0.287471	0.024270
	N1129	N	0.049404	0.294531	0.108826
	C1130	C	0.049785	0.301977	0.099146
	H1131	H	0.042415	0.309384	0.097886
	C1132	C	0.900724	0.300558	0.072006
	C1133	C	0.903326	0.288294	0.076483
	C1134	C	0.913048	0.285929	0.085075
	C1135	C	0.920555	0.295700	0.089680
	C1136	C	0.917724	0.307995	0.085348
	C1137	C	0.908102	0.310369	0.076703
	C1138	C	0.931333	0.293330	0.098455
	C1139	C	0.933926	0.301801	0.108481
	C1140	C	0.944445	0.300062	0.116176
	C1141	C	0.952949	0.289761	0.114190
	C1142	C	0.950241	0.281103	0.104390
	C1143	C	0.939663	0.282825	0.096759
	H1144	H	0.946258	0.306813	0.123756
	H1145	H	0.906278	0.319940	0.073439
	H1146	H	0.956647	0.273058	0.102673
	H1147	H	0.897670	0.280602	0.073052
	H1148	H	0.927493	0.309805	0.110304
	H1149	H	0.923436	0.315732	0.088544
	H1150	H	0.914791	0.276375	0.088429
	H1151	H	0.938005	0.276161	0.089053
	N1152	N	0.883635	0.294914	0.058018
	C1153	C	0.890992	0.303305	0.062453
	H1154	H	0.890305	0.313137	0.059095
	N1155	N	0.967143	0.296123	0.130691
	C1156	C	0.964527	0.288280	0.121736
	H1157	H	0.970902	0.280222	0.119196
	C1158	C	0.018960	0.430054	0.163033
	C1159	C	0.007046	0.426044	0.167397
	C1160	C	0.004389	0.413241	0.168178
	C1161	C	0.013468	0.403805	0.164624
	C1162	C	0.025518	0.407899	0.160680
	C1163	C	0.028205	0.420676	0.159884
	C1164	C	0.010428	0.390104	0.164402
	C1165	C	0.019581	0.380627	0.167065
	C1166	C	0.016990	0.367844	0.165859
	C1167	C	0.005073	0.363877	0.161934
	C1168	C	-0.004237	0.373276	0.159643
	C1169	C	-0.001611	0.386049	0.160854
	H1170	H	0.024285	0.360751	0.167865
	H1171	H	0.037517	0.423483	0.156556
	H1172	H	-0.013550	0.370497	0.156676
	H1173	H	-0.000192	0.433121	0.170051
	H1174	H	0.028850	0.383323	0.170246
	H1175	H	0.032758	0.400942	0.157752
	H1176	H	-0.004879	0.410487	0.171687
	H1177	H	-0.008897	0.393052	0.158602
	N1178	N	0.013091	0.452242	0.162900
	C1179	C	0.021589	0.443488	0.161001
	H1180	H	0.031059	0.445636	0.157112
	N1181	N	0.011245	0.341854	0.160920
	C1182	C	0.002540	0.350427	0.159738
	H1183	H	-0.006977	0.348138	0.156501
	C1184	C	0.945826	0.891728	0.286318
	C1185	C	0.934130	0.886851	0.282817
	C1186	C	0.923400	0.894692	0.281686
	C1187	C	0.923809	0.907795	0.283948
	C1188	C	0.935604	0.912639	0.287258
	C1189	C	0.946328	0.904826	0.288435
	C1190	C	0.912284	0.916225	0.283209
	C1191	C	0.912973	0.928665	0.278610
	C1192	C	0.902366	0.936773	0.278579
	C1193	C	0.890494	0.932848	0.283166
	C1194	C	0.889669	0.920344	0.287491
	C1195	C	0.900295	0.912246	0.287479
	H1196	H	0.903223	0.946355	0.275077
	H1197	H	0.955254	0.908849	0.291099
	H1198	H	0.880618	0.917050	0.291066
	H1199	H	0.933533	0.876784	0.281009
	H1200	H	0.921958	0.931979	0.274880
	H1201	H	0.936278	0.922661	0.289272
	H1202	H	0.914561	0.890643	0.278804
	H1203	H	0.899408	0.902768	0.291226
	N1204	N	0.956957	0.871545	0.286352
	C1205	C	0.957174	0.883555	0.288002
	H1206	H	0.965703	0.888302	0.291187
	N1207	N	0.880383	0.953261	0.280697
	C1208	C	0.879463	0.941663	0.283992
	H1209	H	0.870624	0.938030	0.288141
	C1210	C	0.752021	0.006745	0.196903
	C1211	C	0.763047	0.000004	0.192810
	C1212	C	0.773234	-0.001771	0.200933
	C1213	C	0.772932	0.003049	0.213574
	C1214	C	0.761771	0.009575	0.217711
	C1215	C	0.751583	0.011422	0.209579
	C1216	C	0.784060	0.001470	0.222072
	C1217	C	0.782660	-0.000846	0.235318
	C1218	C	0.793125	-0.002151	0.243184
	C1219	C	0.805530	-0.001122	0.238187
	C1220	C	0.806985	0.001184	0.224960
	C1221	C	0.796517	0.002416	0.217121
	H1222	H	0.791772	-0.003974	0.253368
	H1223	H	0.743155	0.016613	0.212991
	H1224	H	0.816445	0.002065	0.220839
	H1225	H	0.763579	-0.003809	0.183107
	H1226	H	0.773217	-0.001858	0.239443
	H1227	H	0.761241	0.013536	0.227353
	H1228	H	0.781533	-0.007159	0.197514
	H1229	H	0.797953	0.004459	0.207002
	N1230	N	0.741948	0.004892	0.176568
	C1231	C	0.741434	0.009089	0.188152
	H1232	H	0.733463	0.014960	0.191957
	N1233	N	0.815705	-0.004455	0.258465
	C1234	C	0.816687	-0.002235	0.246382
	H1235	H	0.825985	-0.000947	0.241661
	C1236	C	0.007571	0.826660	0.639673
	C1237	C	0.008015	0.838274	0.633241
	C1238	C	0.009493	0.838799	0.619963
	C1239	C	0.010618	0.827774	0.612345
	C1240	C	0.010023	0.816154	0.618788
	C1241	C	0.008579	0.815593	0.632145
	C1242	C	0.012222	0.828850	0.598112
	C1243	C	0.006255	0.820842	0.589398
	C1244	C	0.007114	0.822762	0.576150
	C1245	C	0.014056	0.832757	0.571014
	C1246	C	0.020482	0.840430	0.579662
	C1247	C	0.019599	0.838497	0.592839
	H1248	H	0.002195	0.816644	0.569622
	H1249	H	0.008244	0.806503	0.636864
	H1250	H	0.026122	0.848075	0.575975
	H1251	H	0.007146	0.846991	0.638787
	H1252	H	0.000520	0.813279	0.593109
	H1253	H	0.010954	0.807469	0.613220
	H1254	H	0.009488	0.847962	0.615364
	H1255	H	0.024785	0.844521	0.599224
	N1256	N	0.005203	0.836986	0.659978
	C1257	C	0.006094	0.826486	0.653803
	H1258	H	0.005764	0.817298	0.658592
	N1259	N	0.008637	0.829580	0.548619
	C1260	C	0.014274	0.835914	0.557283
	H1261	H	0.019321	0.844543	0.554675
	C1262	C	-0.004461	0.825286	0.362931
	C1263	C	-0.005218	0.836969	0.369430
	C1264	C	-0.006740	0.837645	0.382708
	C1265	C	-0.007594	0.826709	0.390260
	C1266	C	-0.006670	0.815014	0.383752
	C1267	C	-0.005184	0.814303	0.370393
	C1268	C	-0.009274	0.827955	0.404494
	C1269	C	-0.003086	0.819897	0.413192
	C1270	C	-0.004044	0.821971	0.426446
	C1271	C	-0.011316	0.832174	0.431602
	C1272	C	-0.017953	0.839906	0.422966
	C1273	C	-0.016968	0.837822	0.409783
	H1274	H	0.001048	0.815810	0.432964
	H1275	H	-0.004595	0.805163	0.365621
	H1276	H	-0.023841	0.847717	0.426667
	H1277	H	-0.004565	0.845621	0.363938
	H1278	H	0.002895	0.812168	0.409464
	H1279	H	-0.007379	0.806398	0.389272
	H1280	H	-0.006987	0.846849	0.387362
	H1281	H	-0.022319	0.843901	0.403405
	N1282	N	-0.002327	0.835403	0.342708
	C1283	C	-0.002957	0.824964	0.348799
	H1284	H	-0.002392	0.815731	0.343944
	N1285	N	-0.005834	0.829134	0.454000
	C1286	C	-0.011664	0.835487	0.445343
	H1287	H	-0.016998	0.844252	0.447967
	C1288	C	0.685535	0.012851	0.862943
	C1289	C	0.712760	-0.006469	0.854418
	H1290	H	0.722357	-0.005299	0.857925
	H1291	H	0.712737	-0.014884	0.848263
	C1292	C	0.699150	0.015060	0.867774
	C1293	C	0.685442	0.001230	0.853704
	C1294	C	0.703755	-0.008774	0.866173
	C1295	C	0.708371	0.005389	0.846853
	C1296	C	0.708222	0.017054	0.856097
	C1297	C	0.690225	-0.010623	0.861161
	C1298	C	0.703761	0.003038	0.875035
	C1299	C	0.694643	0.003392	0.842150
	H1300	H	0.705369	0.025453	0.850730
	H1301	H	0.683546	-0.012395	0.869072
	H1302	H	0.713345	0.004392	0.878529
	H1303	H	0.694619	-0.004764	0.835633
	H1304	H	0.717828	0.018574	0.859432
	H1305	H	0.690221	-0.018941	0.854846
	H1306	H	0.697616	0.001823	0.883494
	H1307	H	0.691607	0.011638	0.836643
	H1308	H	0.679163	0.011246	0.871181
	H1309	H	0.681967	0.021258	0.858066
	C1310	C	0.699152	0.026484	0.877216
	O1311	O	0.701819	0.024958	0.888389
	N1312	N	0.695872	0.038330	0.872198
	H1313	H	0.693368	0.039097	0.862840
	C1314	C	0.671783	-0.001189	0.849234
	O1315	O	0.666713	-0.011070	0.851705
	N1316	N	0.665517	0.008553	0.842694
	H1317	H	0.670301	0.016397	0.840141
	C1318	C	0.708348	-0.020702	0.873595
	O1319	O	0.717611	-0.026879	0.870012
	N1320	N	0.701155	-0.023546	0.884554
	H1321	H	0.693391	-0.017966	0.886744
	C1322	C	0.717079	0.008337	0.835063
	O1323	O	0.714881	0.017775	0.828815
	N1324	N	0.727214	0.000019	0.832026
	H1325	H	0.728630	-0.007918	0.837307
	C1326	C	0.012295	0.858520	0.698656
	C1327	C	-0.011844	0.845681	0.718877
	H1328	H	-0.013200	0.847173	0.729215
	H1329	H	-0.019538	0.839727	0.715755
	C1330	C	0.011308	0.860506	0.713425
	C1331	C	0.001495	0.850039	0.693860
	C1332	C	-0.012853	0.858743	0.712140
	C1333	C	0.001139	0.839012	0.715701
	C1334	C	0.012031	0.847503	0.720179
	C1335	C	-0.011493	0.856560	0.697420
	C1336	C	-0.001833	0.866940	0.716752
	C1337	C	0.002398	0.837172	0.700811
	H1338	H	0.021089	0.842621	0.718038
	H1339	H	-0.012165	0.865481	0.692241
	H1340	H	-0.002784	0.868471	0.727147
	H1341	H	-0.005207	0.831075	0.697774
	H1342	H	0.011449	0.849071	0.730567
	H1343	H	-0.019198	0.850720	0.694120
	H1344	H	-0.002260	0.876261	0.712305
	H1345	H	0.011480	0.832376	0.698519
	H1346	H	0.011708	0.867725	0.693932
	H1347	H	0.021394	0.854125	0.695744
	C1348	C	0.021971	0.869192	0.718044
	O1349	O	0.019391	0.878861	0.723959
	N1350	N	0.034409	0.865154	0.714972
	H1351	H	0.036031	0.856425	0.710992
	C1352	C	0.002678	0.849144	0.678991
	O1353	O	0.002589	0.858872	0.672825
	N1354	N	0.003861	0.837301	0.672962
	H1355	H	0.003761	0.829226	0.678189
	C1356	C	-0.025822	0.865331	0.715683
	O1357	O	-0.033045	0.860799	0.723496
	N1358	N	-0.028556	0.876546	0.709203
	H1359	H	-0.021808	0.880084	0.703187
	C1360	C	0.002123	0.825929	0.722324
	O1361	O	0.004097	0.816331	0.716088
	N1362	N	0.000909	0.826054	0.735705
	H1363	H	-0.001102	0.834428	0.740272
	C1364	C	0.308964	-0.003181	0.852605
	C1365	C	0.284478	0.019916	0.846780
	H1366	H	0.275026	0.020521	0.851257
	H1367	H	0.285230	0.027977	0.840292
	C1368	C	0.295459	-0.003264	0.858858
	C1369	C	0.310372	0.008308	0.843479
	C1370	C	0.294432	0.020972	0.857546
	C1371	C	0.286530	0.007445	0.839018
	C1372	C	0.285459	-0.004005	0.848218
	C1373	C	0.307878	0.020794	0.851167
	C1374	C	0.293177	0.009367	0.866474
	C1375	C	0.300168	0.007349	0.832973
	H1376	H	0.286765	-0.012668	0.842520
	H1377	H	0.315120	0.021849	0.858365
	H1378	H	0.283692	0.009505	0.870966
	H1379	H	0.301002	0.015258	0.826303
	H1380	H	0.276013	-0.004206	0.852717
	H1381	H	0.308632	0.028816	0.844623
	H1382	H	0.299925	0.009772	0.874264
	H1383	H	0.301880	-0.001281	0.827273
	H1384	H	0.315783	-0.002978	0.860324
	H1385	H	0.310910	-0.011833	0.847034
	C1386	C	0.294369	-0.014497	0.868306
	O1387	O	0.292584	-0.012575	0.879713
	N1388	N	0.295704	-0.026627	0.862938
	H1389	H	0.297616	-0.027670	0.853340
	C1390	C	0.323824	0.008319	0.837033
	O1391	O	0.325309	0.009208	0.825506
	N1392	N	0.333967	0.006979	0.845368
	H1393	H	0.332179	0.006914	0.855007
	C1394	C	0.291780	0.033410	0.865291
	O1395	O	0.282887	0.040399	0.862840
	N1396	N	0.300183	0.035978	0.875103
	H1397	H	0.307292	0.029605	0.876897
	C1398	C	0.276670	0.006328	0.828205
	O1399	O	0.280049	0.004221	0.817182
	N1400	N	0.263932	0.007537	0.832187
	H1401	H	0.261777	0.008844	0.841704
	C1402	C	0.148812	0.312089	-0.007546
	C1403	C	0.155163	0.284883	-0.027511
	H1404	H	0.152298	0.275213	-0.025679
	H1405	H	0.160203	0.284798	-0.036821
	C1406	C	0.144667	0.298493	-0.004222
	C1407	C	0.156100	0.312228	-0.020700
	C1408	C	0.143037	0.293546	-0.028213
	C1409	C	0.164068	0.289606	-0.016908
	C1410	C	0.156788	0.289787	-0.003770
	C1411	C	0.147256	0.307136	-0.031240
	C1412	C	0.136027	0.293489	-0.014928
	C1413	C	0.167941	0.303381	-0.020136
	H1414	H	0.163013	0.293109	0.003746
	H1415	H	0.139169	0.313712	-0.031898
	H1416	H	0.133295	0.283832	-0.012672
	H1417	H	0.173088	0.303430	-0.029387
	H1418	H	0.154034	0.280258	-0.001117
	H1419	H	0.152249	0.307175	-0.040582
	H1420	H	0.127300	0.299209	-0.015333
	H1421	H	0.174458	0.306607	-0.012872
	H1422	H	0.140658	0.318611	-0.008069
	H1423	H	0.154798	0.315509	0.000107
	C1424	C	0.137534	0.298265	0.009014
	O1425	O	0.141363	0.291709	0.017674
	N1426	N	0.126616	0.306031	0.010067
	H1427	H	0.124347	0.311881	0.002689
	C1428	C	0.159496	0.325964	-0.024201
	O1429	O	0.154969	0.330983	-0.033571
	N1430	N	0.167301	0.332447	-0.015865
	H1431	H	0.171644	0.327709	-0.008637
	C1432	C	0.134161	0.288581	-0.038781
	O1433	O	0.135966	0.278306	-0.043781
	N1434	N	0.124098	0.296730	-0.041934
	H1435	H	0.122938	0.305033	-0.037026
	C1436	C	0.176263	0.281123	-0.016199
	O1437	O	0.186678	0.285594	-0.017509
	N1438	N	0.174568	0.268298	-0.013838
	H1439	H	0.165601	0.265078	-0.012862
	C1440	C	0.854936	0.314995	0.011965
	C1441	C	0.845455	0.289141	0.031642
	H1442	H	0.848226	0.279194	0.030388
	H1443	H	0.839468	0.289846	0.040358
	C1444	C	0.858691	0.300918	0.009244
	C1445	C	0.846281	0.316266	0.024232
	C1446	C	0.857666	0.296809	0.033509
	C1447	C	0.837954	0.294168	0.019965
	C1448	C	0.846538	0.293174	0.007618
	C1449	C	0.853671	0.310828	0.035837
	C1450	C	0.865938	0.295684	0.021044
	C1451	C	0.834293	0.308394	0.022462
	H1452	H	0.841088	0.296562	-0.000528
	H1453	H	0.861883	0.316677	0.037308
	H1454	H	0.868727	0.285766	0.019355
	H1455	H	0.828203	0.309228	0.031101
	H1456	H	0.849300	0.283323	0.005608
	H1457	H	0.847732	0.311642	0.044585
	H1458	H	0.874692	0.300856	0.022060
	H1459	H	0.828742	0.311904	0.014444
	H1460	H	0.863514	0.320406	0.013303
	H1461	H	0.850064	0.319059	0.003775
	C1462	C	0.867600	0.299736	-0.002812
	O1463	O	0.878345	0.295547	-0.001881
	N1464	N	0.862577	0.303734	-0.014485
	H1465	H	0.853595	0.307473	-0.014666
	C1466	C	0.843074	0.330414	0.027076
	O1467	O	0.846843	0.335451	0.036735
	N1468	N	0.836269	0.337173	0.017874
	H1469	H	0.832364	0.332486	0.010441
	C1470	C	0.865255	0.291528	0.045052
	O1471	O	0.862276	0.281912	0.050455
	N1472	N	0.875540	0.298679	0.048626
	H1473	H	0.877724	0.306353	0.043250
	C1474	C	0.825681	0.286675	0.018060
	O1475	O	0.815440	0.292098	0.017494
	N1476	N	0.827188	0.273586	0.016663
	H1477	H	0.836002	0.269557	0.017394
	C1478	C	-0.011243	0.485967	0.854194
	C1479	C	0.012060	0.509890	0.853460
	H1480	H	0.012643	0.517940	0.860008
	H1481	H	0.020047	0.510382	0.846634
	C1482	C	-0.011392	0.497668	0.863266
	C1483	C	0.000327	0.486090	0.844670
	C1484	C	0.012959	0.497667	0.861567
	C1485	C	-0.000411	0.510378	0.845744
	C1486	C	-0.012020	0.509877	0.855159
	C1487	C	0.012707	0.486011	0.852565
	C1488	C	0.001173	0.497439	0.870800
	C1489	C	-0.000421	0.498507	0.836746
	H1490	H	-0.020678	0.510349	0.849593
	H1491	H	0.013359	0.477356	0.858232
	H1492	H	0.001276	0.505531	0.877400
	H1493	H	0.007664	0.498778	0.829984
	H1494	H	-0.012351	0.517985	0.861717
	H1495	H	0.020873	0.485861	0.845910
	H1496	H	0.001685	0.488958	0.876758
	H1497	H	-0.008956	0.498676	0.830975
	H1498	H	-0.010808	0.477487	0.860142
	H1499	H	-0.019955	0.486031	0.848753
	C1500	C	-0.022760	0.497429	0.873001
	O1501	O	-0.021075	0.497719	0.884481
	N1502	N	-0.034876	0.496968	0.867818
	H1503	H	-0.035967	0.496531	0.858139
	C1504	C	0.001168	0.474284	0.835599
	O1505	O	0.009979	0.472916	0.827986
	N1506	N	-0.008172	0.465271	0.837105
	H1507	H	-0.016170	0.467444	0.842332
	C1508	C	0.025160	0.497476	0.869647
	O1509	O	0.024517	0.496676	0.881262
	N1510	N	0.036701	0.498428	0.862869
	H1511	H	0.036831	0.499113	0.853111
	C1512	C	-0.001170	0.522781	0.837814
	O1513	O	-0.002409	0.522715	0.826285
	N1514	N	-0.000288	0.533818	0.845121
	H1515	H	0.000216	0.532999	0.854836
	C1516	C	0.310167	-0.000230	0.140957
	C1517	C	0.283091	-0.019037	0.147453
	H1518	H	0.273578	-0.017727	0.143678
	H1519	H	0.282956	-0.027511	0.153426
	C1520	C	0.296706	0.002588	0.135748
	C1521	C	0.310170	-0.012159	0.149626
	C1522	C	0.292601	-0.021191	0.135963
	C1523	C	0.286856	-0.007504	0.155711
	C1524	C	0.287139	0.004512	0.147178
	C1525	C	0.305960	-0.023618	0.141412
	C1526	C	0.292645	-0.009047	0.127727
	C1527	C	0.300459	-0.010094	0.160878
	H1528	H	0.289635	0.012536	0.153177
	H1529	H	0.313001	-0.025366	0.133714
	H1530	H	0.283175	-0.007284	0.123926
	H1531	H	0.300414	-0.018514	0.166935
	H1532	H	0.277782	0.006645	0.143329
	H1533	H	0.305881	-0.032129	0.147342
	H1534	H	0.299127	-0.010190	0.119446
	H1535	H	0.303116	-0.002201	0.166978
	H1536	H	0.316867	-0.001787	0.132884
	H1537	H	0.313348	0.007913	0.146346
	C1538	C	0.296756	0.014310	0.126855
	O1539	O	0.294656	0.013191	0.115498
	N1540	N	0.299257	0.025942	0.132613
	H1541	H	0.301598	0.026319	0.142041
	C1542	C	0.323690	-0.015220	0.154530
	O1543	O	0.328736	-0.025493	0.152464
	N1544	N	0.329970	-0.005510	0.160722
	H1545	H	0.325086	0.002515	0.163425
	C1546	C	0.288590	-0.032657	0.127688
	O1547	O	0.279221	-0.038546	0.130389
	N1548	N	0.296352	-0.035379	0.116937
	H1549	H	0.304207	-0.030151	0.115496
	C1550	C	0.277345	-0.005430	0.167184
	O1551	O	0.280907	-0.005522	0.178175
	N1552	N	0.264711	-0.003159	0.163899
	H1553	H	0.262348	-0.002897	0.154463
	C1554	C	-0.009998	0.857087	0.304365
	C1555	C	0.014226	0.843371	0.283787
	H1556	H	0.015478	0.844803	0.273460
	H1557	H	0.022056	0.837147	0.286770
	C1558	C	-0.009161	0.859022	0.289620
	C1559	C	0.000999	0.848227	0.308962
	C1560	C	0.015053	0.856411	0.290680
	C1561	C	0.001386	0.837159	0.286982
	C1562	C	-0.009696	0.846032	0.282706
	C1563	C	0.013848	0.854293	0.305380
	C1564	C	0.003843	0.864997	0.286267
	C1565	C	0.000275	0.835376	0.301855
	H1566	H	-0.018649	0.841458	0.284854
	H1567	H	0.014397	0.863202	0.310664
	H1568	H	0.004684	0.866485	0.275887
	H1569	H	0.008017	0.829013	0.304751
	H1570	H	-0.009227	0.847574	0.272337
	H1571	H	0.021688	0.848187	0.308542
	H1572	H	0.004141	0.874308	0.290834
	H1573	H	-0.008706	0.830900	0.304160
	H1574	H	-0.009541	0.866279	0.309202
	H1575	H	-0.018999	0.853013	0.307296
	C1576	C	-0.020045	0.868053	0.285190
	O1577	O	-0.017710	0.877663	0.279434
	N1578	N	-0.032379	0.864347	0.288218
	H1579	H	-0.033748	0.855686	0.292149
	C1580	C	-0.000058	0.847403	0.323824
	O1581	O	-0.000097	0.857146	0.330102
	N1582	N	-0.000994	0.835615	0.329728
	H1583	H	-0.000767	0.827516	0.324414
	C1584	C	0.027888	0.862518	0.287100
	O1585	O	0.035097	0.857719	0.279134
	N1586	N	0.030539	0.873621	0.293716
	H1587	H	0.023807	0.877422	0.299863
	C1588	C	0.000583	0.824111	0.280170
	O1589	O	-0.001153	0.814567	0.286268
	N1590	N	0.001656	0.824237	0.266783
	H1591	H	0.003495	0.832557	0.262352
	C1592	C	0.019544	0.484558	0.142129
	C1593	C	-0.003462	0.510030	0.142641
	H1594	H	-0.003875	0.518035	0.136095
	H1595	H	-0.011503	0.511133	0.149389
	C1596	C	0.019911	0.496135	0.133061
	C1597	C	0.007893	0.485588	0.151537
	C1598	C	-0.004440	0.497764	0.134523
	C1599	C	0.008937	0.509800	0.150480
	C1600	C	0.020617	0.508411	0.141179
	C1601	C	-0.004410	0.486217	0.143523
	C1602	C	0.007415	0.496636	0.125406
	C1603	C	0.008720	0.498055	0.159471
	H1604	H	0.029221	0.508389	0.146833
	H1605	H	-0.005121	0.477533	0.137848
	H1606	H	0.007478	0.504645	0.118806
	H1607	H	0.000579	0.498942	0.166155
	H1608	H	0.021114	0.516404	0.134621
	H1609	H	-0.012631	0.486687	0.150105
	H1610	H	0.006845	0.488115	0.119439
	H1611	H	0.017195	0.497744	0.165328
	H1612	H	0.019044	0.476031	0.136179
	H1613	H	0.028206	0.484102	0.147646
	C1614	C	0.031331	0.495077	0.123408
	O1615	O	0.029710	0.495206	0.111913
	N1616	N	0.043428	0.494152	0.128646
	H1617	H	0.044488	0.493666	0.138323
	C1618	C	0.006742	0.474005	0.160618
	O1619	O	-0.002170	0.473428	0.168148
	N1620	N	0.015883	0.464258	0.159307
	H1621	H	0.023956	0.465656	0.154090
	C1622	C	-0.016574	0.498243	0.126344
	O1623	O	-0.015853	0.497324	0.114727
	N1624	N	-0.028155	0.499901	0.133049
	H1625	H	-0.028346	0.500750	0.142806
	C1626	C	0.009753	0.522243	0.158438
	O1627	O	0.010799	0.522234	0.169991
	N1628	N	0.009168	0.533248	0.151135
	H1629	H	0.008805	0.532353	0.141408
	C1630	C	0.687487	0.007244	0.145381
	C1631	C	0.715009	0.024275	0.153691
	H1632	H	0.724595	0.022976	0.149654
	H1633	H	0.715254	0.032141	0.160561
	C1634	C	0.701042	0.004414	0.139755
	C1635	C	0.687606	0.018290	0.155331
	C1636	C	0.706010	0.027840	0.142567
	C1637	C	0.710525	0.012202	0.160670
	C1638	C	0.710144	0.001098	0.150838
	C1639	C	0.692548	0.030264	0.148397
	C1640	C	0.705798	0.016559	0.133010
	C1641	C	0.696815	0.014810	0.166212
	H1642	H	0.707163	-0.007344	0.155932
	H1643	H	0.685799	0.032932	0.141031
	H1644	H	0.715337	0.014798	0.128926
	H1645	H	0.696949	0.022590	0.173194
	H1646	H	0.719597	-0.000977	0.146730
	H1647	H	0.692732	0.038166	0.155236
	H1648	H	0.699652	0.018787	0.124973
	H1649	H	0.693620	0.006498	0.171396
	H1650	H	0.681136	0.009785	0.137578
	H1651	H	0.683806	-0.001210	0.149880
	C1652	C	0.700904	-0.006477	0.129678
	O1653	O	0.703499	-0.004523	0.118472
	N1654	N	0.697723	-0.018398	0.134293
	H1655	H	0.694969	-0.019399	0.143660
	C1656	C	0.674009	0.021449	0.160630
	O1657	O	0.669497	0.032073	0.159784
	N1658	N	0.667029	0.011518	0.165691
	H1659	H	0.671439	0.003073	0.167462
	C1660	C	0.710849	0.039790	0.135561
	O1661	O	0.720916	0.044323	0.138139
	N1662	N	0.702853	0.044813	0.126274
	H1663	H	0.694728	0.040257	0.124359
	C1664	C	0.719516	0.008661	0.171797
	O1665	O	0.715322	0.006923	0.182556
	N1666	N	0.732383	0.007345	0.168386
	H1667	H	0.735102	0.008213	0.158978
	C1668	C	0.564895	0.011380	0.833679
	C1669	C	0.570961	0.018419	0.824066
	C1670	C	0.584140	0.019253	0.823501
	C1671	C	0.591889	0.013076	0.832471
	C1672	C	0.585719	0.006010	0.842035
	C1673	C	0.572601	0.005171	0.842633
	C1674	C	0.605994	0.013919	0.832267
	C1675	C	0.613682	0.003567	0.835976
	C1676	C	0.626770	0.004417	0.836732
	C1677	C	0.632905	0.015681	0.833758
	C1678	C	0.625353	0.025939	0.829633
	C1679	C	0.612221	0.025058	0.828900
	H1680	H	0.632394	-0.003722	0.839763
	H1681	H	0.568188	-0.000341	0.850168
	H1682	H	0.629848	0.034724	0.827193
	H1683	H	0.565201	0.023214	0.817000
	H1684	H	0.609335	-0.005355	0.838179
	H1685	H	0.591300	0.001336	0.849322
	H1686	H	0.588554	0.024596	0.815843
	H1687	H	0.606609	0.033253	0.826043
	N1688	N	0.543237	0.016059	0.827372
	C1689	C	0.551044	0.010415	0.834856
	H1690	H	0.547622	0.004724	0.842976
	N1691	N	0.653006	0.007432	0.840293
	C1692	C	0.646679	0.016663	0.835456
	H1693	H	0.651050	0.025652	0.833002
	C1694	C	0.705150	0.904692	0.957961
	C1695	C	0.693361	0.910220	0.954899
	C1696	C	0.692380	0.919518	0.945567
	C1697	C	0.703105	0.923845	0.938814
	C1698	C	0.714850	0.918043	0.941674
	C1699	C	0.715864	0.908710	0.951021
	C1700	C	0.701891	0.934291	0.929311
	C1701	C	0.709447	0.934810	0.918019
	C1702	C	0.708088	0.944671	0.909284
	C1703	C	0.699109	0.954529	0.911453
	C1704	C	0.691613	0.954106	0.922767
	C1705	C	0.692989	0.944265	0.931446
	H1706	H	0.713974	0.944815	0.900602
	H1707	H	0.725069	0.904519	0.953128
	H1708	H	0.684667	0.961639	0.924758
	H1709	H	0.684899	0.907148	0.959948
	H1710	H	0.716307	0.927224	0.915938
	H1711	H	0.723347	0.921156	0.936718
	H1712	H	0.683081	0.923388	0.943317
	H1713	H	0.687237	0.944433	0.940213
	N1714	N	0.696377	0.892583	0.975148
	C1715	C	0.706173	0.895317	0.968330
	H1716	H	0.715672	0.891379	0.970202
	N1717	N	0.703963	0.966263	0.892071
	C1718	C	0.697303	0.965038	0.902452
	H1719	H	0.689807	0.972064	0.905124
	C1720	C	0.695404	0.110458	0.945487
	C1721	C	0.706874	0.108935	0.938465
	C1722	C	0.708276	0.099958	0.928646
	C1723	C	0.698281	0.092129	0.925296
	C1724	C	0.686749	0.093862	0.932211
	C1725	C	0.685345	0.102756	0.942087
	C1726	C	0.699815	0.082180	0.915119
	C1727	C	0.690040	0.079612	0.906579
	C1728	C	0.691256	0.069913	0.897488
	C1729	C	0.702308	0.062237	0.896537
	C1730	C	0.712177	0.064887	0.904910
	C1731	C	0.710970	0.074648	0.913929
	H1732	H	0.683533	0.068087	0.891087
	H1733	H	0.676372	0.103739	0.947324
	H1734	H	0.720803	0.059085	0.904385
	H1735	H	0.714741	0.114854	0.940855
	H1736	H	0.681425	0.085428	0.907016
	H1737	H	0.678901	0.087861	0.930005
	H1738	H	0.717215	0.099081	0.923328
	H1739	H	0.718639	0.076257	0.920461
	N1740	N	0.702780	0.126915	0.959412
	C1741	C	0.693908	0.119524	0.956230
	H1742	H	0.684763	0.119654	0.961513
	N1743	N	0.694654	0.048977	0.879609
	C1744	C	0.703456	0.051511	0.887468
	H1745	H	0.712202	0.045657	0.887864
	C1746	C	0.011566	0.752255	0.806005
	C1747	C	0.002924	0.762252	0.808884
	C1748	C	0.001171	0.772243	0.800429
	C1749	C	0.007958	0.772805	0.788660
	C1750	C	0.016453	0.762664	0.785732
	C1751	C	0.018233	0.752645	0.794185
	C1752	C	0.006265	0.783771	0.779857
	C1753	C	0.006832	0.782396	0.766394
	C1754	C	0.005286	0.792730	0.758291
	C1755	C	0.003115	0.804984	0.763268
	C1756	C	0.002560	0.806422	0.776704
	C1757	C	0.004099	0.796085	0.784762
	H1758	H	0.005715	0.791390	0.747939
	H1759	H	0.024930	0.745017	0.791714
	H1760	H	0.000960	0.815780	0.780826
	H1761	H	-0.002450	0.762115	0.817885
	H1762	H	0.008261	0.773036	0.762225
	H1763	H	0.021971	0.762813	0.776822
	H1764	H	-0.005756	0.779665	0.802885
	H1765	H	0.003906	0.797596	0.795082
	N1766	N	0.007969	0.741967	0.826149
	C1767	C	0.013684	0.741879	0.815151
	H1768	H	0.020633	0.734444	0.812237
	N1769	N	0.002320	0.815220	0.742610
	C1770	C	0.001549	0.816050	0.754916
	H1771	H	-0.000179	0.825221	0.759765
	C1772	C	0.296414	0.107634	0.949123
	C1773	C	0.307720	0.106635	0.941754
	C1774	C	0.309313	0.097604	0.932014
	C1775	C	0.299681	0.089174	0.929091
	C1776	C	0.288290	0.090382	0.936332
	C1777	C	0.286706	0.099338	0.946140
	C1778	C	0.301540	0.079188	0.918993
	C1779	C	0.291796	0.075982	0.910656
	C1780	C	0.293479	0.066393	0.901493
	C1781	C	0.304983	0.059452	0.900289
	C1782	C	0.314784	0.062680	0.908524
	C1783	C	0.313103	0.072332	0.917606
	H1784	H	0.285805	0.064132	0.895167
	H1785	H	0.277895	0.099890	0.951705
	H1786	H	0.323773	0.057495	0.907801
	H1787	H	0.315333	0.112965	0.943842
	H1788	H	0.282842	0.081245	0.911264
	H1789	H	0.280723	0.083930	0.934454
	H1790	H	0.318111	0.097136	0.926425
	H1791	H	0.320751	0.074428	0.924012
	N1792	N	0.303386	0.124640	0.962539
	C1793	C	0.294804	0.116742	0.959828
	H1794	H	0.285834	0.116459	0.965386
	N1795	N	0.298045	0.046074	0.883129
	C1796	C	0.306744	0.049016	0.890945
	H1797	H	0.315851	0.043731	0.891053
	C1798	C	0.296901	0.900458	0.934097
	C1799	C	0.284726	0.903584	0.929725
	C1800	C	0.282892	0.912922	0.920507
	C1801	C	0.293124	0.919499	0.915144
	C1802	C	0.305306	0.916187	0.919443
	C1803	C	0.307158	0.906947	0.928698
	C1804	C	0.291377	0.929754	0.905530
	C1805	C	0.300026	0.931143	0.895180
	C1806	C	0.298884	0.941109	0.886588
	C1807	C	0.289031	0.950240	0.887942
	C1808	C	0.280195	0.948742	0.898087
	C1809	C	0.281320	0.938714	0.906629
	H1810	H	0.305754	0.941978	0.878758
	H1811	H	0.316673	0.904712	0.931862
	H1812	H	0.272483	0.955651	0.899326
	H1813	H	0.276687	0.898614	0.933692
	H1814	H	0.307680	0.924193	0.893802
	H1815	H	0.313396	0.921204	0.915679
	H1816	H	0.273396	0.915052	0.917225
	H1817	H	0.274531	0.937986	0.914550
	N1818	N	0.290348	0.884382	0.949192
	C1819	C	0.299165	0.890982	0.944108
	H1820	H	0.309049	0.889720	0.947128
	N1821	N	0.296253	0.962663	0.870084
	C1822	C	0.288188	0.961198	0.879327
	H1823	H	0.280411	0.968097	0.881299
	C1824	C	0.368369	0.002095	0.844499
	C1825	C	0.373199	0.009117	0.834165
	C1826	C	0.386190	0.009307	0.831423
	C1827	C	0.394933	0.002348	0.838745
	C1828	C	0.390015	-0.004822	0.848949
	C1829	C	0.377084	-0.004896	0.851815
	C1830	C	0.408886	0.002580	0.836242
	C1831	C	0.416382	-0.008599	0.836495
	C1832	C	0.429521	-0.008402	0.835136
	C1833	C	0.435846	0.003024	0.833573
	C1834	C	0.428373	0.014180	0.832899
	C1835	C	0.415200	0.013939	0.834107
	H1836	H	0.435048	-0.017172	0.835502
	H1837	H	0.373632	-0.010440	0.859821
	H1838	H	0.433023	0.023106	0.831553
	H1839	H	0.366624	0.014501	0.828326
	H1840	H	0.411755	-0.017557	0.837705
	H1841	H	0.396541	-0.010150	0.854884
	H1842	H	0.389673	0.014756	0.823355
	H1843	H	0.409667	0.022713	0.833837
	N1844	N	0.346245	0.007324	0.840981
	C1845	C	0.354768	0.002040	0.847904
	H1846	H	0.352114	-0.002974	0.856754
	N1847	N	0.456441	-0.006945	0.834003
	C1848	C	0.449816	0.003339	0.833485
	H1849	H	0.453873	0.012756	0.833868
	C1850	C	0.159737	0.432490	-0.009141
	C1851	C	0.172366	0.428371	-0.007548
	C1852	C	0.175722	0.415519	-0.007731
	C1853	C	0.166647	0.406232	-0.009646
	C1854	C	0.154020	0.410451	-0.011198
	C1855	C	0.150635	0.423215	-0.010927
	C1856	C	0.169742	0.392406	-0.010010
	C1857	C	0.163859	0.384573	-0.018938
	C1858	C	0.165682	0.371531	-0.018856
	C1859	C	0.173509	0.365609	-0.009816
	C1860	C	0.179832	0.373401	-0.001202
	C1861	C	0.178020	0.386511	-0.001345
	H1862	H	0.160885	0.365760	-0.025802
	H1863	H	0.140795	0.426088	-0.012122
	H1864	H	0.186042	0.369075	0.005771
	H1865	H	0.179531	0.435393	-0.006172
	H1866	H	0.157825	0.388824	-0.026117
	H1867	H	0.146718	0.403537	-0.012362
	H1868	H	0.185560	0.412585	-0.006634
	H1869	H	0.182743	0.392308	0.005619
	N1870	N	0.163171	0.455142	-0.007972
	C1871	C	0.155636	0.445860	-0.008997
	H1872	H	0.145376	0.447653	-0.010016
	N1873	N	0.167657	0.345194	-0.016839
	C1874	C	0.174332	0.351693	-0.009230
	H1875	H	0.180284	0.347335	-0.001880
	C1876	C	0.245399	0.195129	0.001246
	C1877	C	0.234957	0.191900	-0.006130
	C1878	C	0.225033	0.200535	-0.008169
	C1879	C	0.225037	0.212851	-0.002995
	C1880	C	0.235585	0.216076	0.004267
	C1881	C	0.245502	0.207440	0.006369
	C1882	C	0.214306	0.222028	-0.005065
	C1883	C	0.216329	0.234970	-0.006990
	C1884	C	0.206291	0.243522	-0.008860
	C1885	C	0.193688	0.239561	-0.008850
	C1886	C	0.191602	0.226646	-0.006951
	C1887	C	0.201664	0.218112	-0.005136
	H1888	H	0.208142	0.253447	-0.010373
	H1889	H	0.253467	0.210182	0.012078
	H1890	H	0.181969	0.223326	-0.006869
	H1891	H	0.234693	0.182484	-0.010273
	H1892	H	0.225952	0.238322	-0.007270
	H1893	H	0.235845	0.225425	0.008565
	H1894	H	0.217222	0.197791	-0.014084
	H1895	H	0.199716	0.208246	-0.003445
	N1896	N	0.255714	0.174708	-0.000972
	C1897	C	0.255807	0.185955	0.003663
	H1898	H	0.263356	0.189174	0.009897
	N1899	N	0.184808	0.260371	-0.012431
	C1900	C	0.183013	0.248569	-0.010661
	H1901	H	0.173431	0.244744	-0.010329
	C1902	C	0.847560	0.436032	0.006476
	C1903	C	0.834819	0.432813	0.005174
	C1904	C	0.831156	0.420252	0.005849
	C1905	C	0.840021	0.410374	0.007992
	C1906	C	0.852765	0.413685	0.009234
	C1907	C	0.856456	0.426158	0.008462
	C1908	C	0.836538	0.396848	0.008946
	C1909	C	0.842197	0.389025	0.018194
	C1910	C	0.839875	0.376180	0.018745
	C1911	C	0.831770	0.370453	0.010035
	C1912	C	0.825729	0.378282	0.001059
	C1913	C	0.828023	0.391199	0.000578
	H1914	H	0.844483	0.370402	0.025946
	H1915	H	0.866373	0.428332	0.009440
	H1916	H	0.819318	0.374125	-0.005677
	H1917	H	0.827807	0.440306	0.003647
	H1918	H	0.848433	0.393145	0.025133
	H1919	H	0.859898	0.406270	0.010572
	H1920	H	0.821237	0.418029	0.004981
	H1921	H	0.823480	0.396999	-0.006631
	N1922	N	0.844510	0.458826	0.004744
	C1923	C	0.851924	0.449086	0.005871
	H1924	H	0.862224	0.450205	0.006688
	N1925	N	0.836525	0.349970	0.018236
	C1926	C	0.830314	0.356634	0.010170
	H1927	H	0.824312	0.352409	0.002911
	C1928	C	0.756599	0.203967	0.000155
	C1929	C	0.767194	0.200188	0.007259
	C1930	C	0.777106	0.208337	0.009295
	C1931	C	0.776963	0.220686	0.004362
	C1932	C	0.766300	0.224432	-0.002704
	C1933	C	0.756374	0.216293	-0.004771
	C1934	C	0.787632	0.229370	0.006578
	C1935	C	0.785550	0.242447	0.008443
	C1936	C	0.795518	0.250517	0.010566
	C1937	C	0.808111	0.245909	0.010911
	C1938	C	0.810267	0.232866	0.009016
	C1939	C	0.800278	0.224826	0.006908
	H1940	H	0.793609	0.260554	0.012056
	H1941	H	0.748286	0.219448	-0.010269
	H1942	H	0.819897	0.229048	0.009179
	H1943	H	0.767549	0.190752	0.011253
	H1944	H	0.775925	0.246302	0.008514
	H1945	H	0.765916	0.233804	-0.006844
	H1946	H	0.784991	0.205178	0.015068
	H1947	H	0.802305	0.214847	0.005227
	N1948	N	0.746386	0.184062	0.002291
	C1949	C	0.746093	0.195372	-0.002044
	H1950	H	0.738207	0.199089	-0.007738
	N1951	N	0.816955	0.266309	0.014654
	C1952	C	0.818718	0.254348	0.013156
	H1953	H	0.828257	0.249936	0.013406
	C1954	C	0.003202	0.634879	0.831218
	C1955	C	0.013033	0.628461	0.837576
	C1956	C	0.013043	0.615426	0.839056
	C1957	C	0.003244	0.608091	0.834284
	C1958	C	-0.006282	0.614465	0.827411
	C1959	C	-0.006343	0.627566	0.825947
	C1960	C	0.002933	0.594302	0.837099
	C1961	C	-0.000739	0.585156	0.828143
	C1962	C	-0.000926	0.572344	0.831241
	C1963	C	0.002428	0.568123	0.843507
	C1964	C	0.006005	0.577258	0.852502
	C1965	C	0.006267	0.589978	0.849360
	H1966	H	-0.003689	0.565432	0.824153
	H1967	H	-0.013961	0.632265	0.820859
	H1968	H	0.008602	0.574310	0.862071
	H1969	H	0.020674	0.633841	0.841521
	H1970	H	-0.003231	0.588149	0.818558
	H1971	H	-0.013940	0.609067	0.823558
	H1972	H	0.020840	0.610790	0.843939
	H1973	H	0.008836	0.596791	0.856623
	N1974	N	0.011353	0.654922	0.836640
	C1975	C	0.002822	0.648815	0.830867
	H1976	H	-0.005153	0.653546	0.826114
	N1977	N	-0.000436	0.545623	0.839830
	C1978	C	0.002275	0.554798	0.847357
	H1979	H	0.004716	0.552940	0.857423
	C1980	C	0.894240	0.501022	0.943707
	C1981	C	0.895231	0.512031	0.936322
	C1982	C	0.903986	0.512694	0.926147
	C1983	C	0.912061	0.502358	0.922774
	C1984	C	0.910785	0.491243	0.929968
	C1985	C	0.902161	0.490609	0.940243
	C1986	C	0.921923	0.503196	0.912367
	C1987	C	0.924149	0.493380	0.903356
	C1988	C	0.933816	0.493965	0.894061
	C1989	C	0.941831	0.504346	0.893443
	C1990	C	0.939540	0.514243	0.902336
	C1991	C	0.929768	0.513709	0.911506
	H1992	H	0.935400	0.486225	0.887285
	H1993	H	0.901592	0.482008	0.945805
	H1994	H	0.945609	0.522350	0.902080
	H1995	H	0.889190	0.520170	0.938809
	H1996	H	0.918105	0.485252	0.903642
	H1997	H	0.916987	0.483164	0.927688
	H1998	H	0.904580	0.521311	0.920611
	H1999	H	0.928386	0.521349	0.918437
	N2000	N	0.877709	0.509417	0.958015
	C2001	C	0.885670	0.500434	0.955020
	H2002	H	0.886462	0.491894	0.960948
	N2003	N	0.954428	0.496358	0.875366
	C2004	C	0.952553	0.504782	0.884188
	H2005	H	0.959045	0.512665	0.885253
	C2006	C	0.111679	0.503714	0.930651
	C2007	C	0.111109	0.492101	0.924090
	C2008	C	0.102034	0.490120	0.914820
	C2009	C	0.093186	0.499674	0.911562
	C2010	C	0.094041	0.511401	0.917883
	C2011	C	0.102999	0.513357	0.927260
	C2012	C	0.082959	0.497422	0.902232
	C2013	C	0.079550	0.506453	0.892989
	C2014	C	0.069480	0.504602	0.884815
	C2015	C	0.062239	0.493669	0.885593
	C2016	C	0.065752	0.484523	0.894666
	C2017	C	0.075914	0.486329	0.902721
	H2018	H	0.066968	0.511765	0.877848
	H2019	H	0.103234	0.522404	0.932190
	H2020	H	0.060301	0.476009	0.895461
	H2021	H	0.117742	0.484536	0.926519
	H2022	H	0.084970	0.514987	0.892198
	H2023	H	0.087256	0.518911	0.915682
	H2024	H	0.101784	0.481060	0.909914
	H2025	H	0.078218	0.479253	0.909850
	N2026	N	0.129043	0.497295	0.944048
	C2027	C	0.120575	0.505657	0.941131
	H2028	H	0.119529	0.514615	0.946518
	N2029	N	0.047886	0.499926	0.868939
	C2030	C	0.051013	0.492002	0.877674
	H2031	H	0.045230	0.483739	0.879767
	C2032	C	0.299936	0.099623	0.062202
	C2033	C	0.287931	0.097630	0.067804
	C2034	C	0.286268	0.088595	0.077340
	C2035	C	0.296509	0.081178	0.081789
	C2036	C	0.308544	0.083406	0.076304
	C2037	C	0.310224	0.092362	0.066741
	C2038	C	0.294837	0.071077	0.091564
	C2039	C	0.303983	0.068639	0.100934
	C2040	C	0.302851	0.058681	0.109523
	C2041	C	0.292502	0.050621	0.109143
	C2042	C	0.283183	0.053194	0.100009
	C2043	C	0.284314	0.063195	0.091469
	H2044	H	0.310116	0.056952	0.116554
	H2045	H	0.319609	0.093724	0.062612
	H2046	H	0.275095	0.047111	0.099514
	H2047	H	0.279880	0.103217	0.064514
	H2048	H	0.312043	0.074744	0.101534
	H2049	H	0.316631	0.077736	0.079343
	H2050	H	0.276899	0.087344	0.081553
	H2051	H	0.277142	0.064706	0.084294
	N2052	N	0.292954	0.115663	0.047225
	C2053	C	0.301915	0.108656	0.051723
	H2054	H	0.311640	0.109099	0.047733
	N2055	N	0.300085	0.036882	0.125854
	C2056	C	0.291585	0.039577	0.117601
	H2057	H	0.283323	0.033615	0.116331
	C2058	C	0.294029	0.896752	0.038992
	C2059	C	0.305732	0.901755	0.042270
	C2060	C	0.306591	0.910616	0.052124
	C2061	C	0.295821	0.915003	0.059212
	C2062	C	0.284162	0.909755	0.056075
	C2063	C	0.283272	0.900857	0.046215
	C2064	C	0.296871	0.924912	0.069390
	C2065	C	0.289231	0.925157	0.080655
	C2066	C	0.290399	0.934486	0.090055
	C2067	C	0.299285	0.944051	0.088633
	C2068	C	0.306895	0.943889	0.077376
	C2069	C	0.305696	0.934580	0.068021
	H2070	H	0.284435	0.934427	0.098687
	H2071	H	0.274132	0.897071	0.043940
	H2072	H	0.313776	0.951208	0.075966
	H2073	H	0.314223	0.898600	0.036991
	H2074	H	0.282446	0.917771	0.082184
	H2075	H	0.275625	0.912948	0.061249
	H2076	H	0.315834	0.914059	0.054531
	H2077	H	0.311526	0.934956	0.059327
	N2078	N	0.302889	0.884861	0.021155
	C2079	C	0.293112	0.887745	0.028207
	H2080	H	0.283678	0.884136	0.026285
	N2081	N	0.293901	0.954973	0.108648
	C2082	C	0.300829	0.953995	0.098366
	H2083	H	0.308297	0.960814	0.096334
	C2084	C	0.363047	0.001027	0.166847
	C2085	C	0.368958	-0.011020	0.166704
	C2086	C	0.382096	-0.012494	0.166790
	C2087	C	0.390067	-0.002040	0.166866
	C2088	C	0.384067	0.009997	0.167525
	C2089	C	0.370898	0.011511	0.167538
	C2090	C	0.404155	-0.003734	0.165627
	C2091	C	0.412635	0.004814	0.170934
	C2092	C	0.425727	0.003372	0.169029
	C2093	C	0.431002	-0.006755	0.161747
	C2094	C	0.422603	-0.015461	0.156645
	C2095	C	0.409563	-0.013960	0.158517
	H2096	H	0.432045	0.010162	0.173142
	H2097	H	0.366597	0.020928	0.167761
	H2098	H	0.426371	-0.023380	0.150959
	H2099	H	0.363105	-0.019294	0.166387
	H2100	H	0.408922	0.012659	0.176753
	H2101	H	0.389832	0.018322	0.167572
	H2102	H	0.386235	-0.021976	0.166862
	H2103	H	0.403427	-0.020655	0.154003
	N2104	N	0.342532	-0.007101	0.163033
	C2105	C	0.349202	0.002506	0.165583
	H2106	H	0.345051	0.012122	0.166107
	N2107	N	0.452814	-0.000090	0.162215
	C2108	C	0.444675	-0.008243	0.158894
	H2109	H	0.447607	-0.016593	0.153087
	C2110	C	-0.000556	0.803486	0.238776
	C2111	C	-0.002410	0.791240	0.243455
	C2112	C	-0.003834	0.781050	0.235100
	C2113	C	-0.003459	0.782570	0.221673
	C2114	C	-0.001598	0.794873	0.217069
	C2115	C	-0.000182	0.805065	0.225378
	C2116	C	-0.004991	0.771764	0.212593
	C2117	C	0.001691	0.771155	0.200740
	C2118	C	0.000074	0.761335	0.192022
	C2119	C	-0.008318	0.751564	0.194710
	C2120	C	-0.014869	0.751991	0.206612
	C2121	C	-0.013227	0.761841	0.215327
	H2122	H	0.005361	0.761158	0.182963
	H2123	H	0.001179	0.814420	0.221484
	H2124	H	-0.021370	0.744532	0.208938
	H2125	H	-0.002688	0.789793	0.253772
	H2126	H	0.008431	0.778396	0.198420
	H2127	H	-0.001555	0.796502	0.206792
	H2128	H	-0.005016	0.771685	0.239034
	H2129	H	-0.018654	0.762036	0.224301
	N2130	N	0.000325	0.813496	0.259674
	C2131	C	0.000886	0.814413	0.247381
	H2132	H	0.002436	0.823563	0.242729
	N2133	N	-0.004694	0.741466	0.174237
	C2134	C	-0.010291	0.741381	0.185291
	H2135	H	-0.017027	0.734102	0.188068
	C2136	C	0.003301	0.634432	0.166550
	C2137	C	-0.005982	0.628283	0.159536
	C2138	C	-0.005477	0.615263	0.157727
	C2139	C	0.004307	0.607674	0.162824
	C2140	C	0.013271	0.613779	0.170322
	C2141	C	0.012824	0.626868	0.172107
	C2142	C	0.005154	0.593894	0.159743
	C2143	C	0.008438	0.584591	0.168761
	C2144	C	0.009010	0.571777	0.165455
	C2145	C	0.006445	0.567710	0.152922
	C2146	C	0.003297	0.577003	0.143861
	C2147	C	0.002644	0.589729	0.147206
	H2148	H	0.011439	0.564741	0.172593
	H2149	H	0.020016	0.631359	0.177696
	H2150	H	0.001321	0.574173	0.134089
	H2151	H	-0.013601	0.633861	0.155350
	H2152	H	0.010299	0.587473	0.178545
	H2153	H	0.020898	0.608173	0.174430
	H2154	H	-0.012859	0.610834	0.152337
	H2155	H	0.000396	0.596666	0.139917
	N2156	N	-0.005407	0.654679	0.161402
	C2157	C	0.003139	0.648358	0.167321
	H2158	H	0.010723	0.652894	0.172547
	N2159	N	0.009136	0.545087	0.156501
	C2160	C	0.006915	0.554370	0.148901
	H2161	H	0.005001	0.552598	0.138689
	C2162	C	0.113717	0.498649	0.052469
	C2163	C	0.112487	0.509444	0.060377
	C2164	C	0.103813	0.510002	0.070667
	C2165	C	0.096067	0.499763	0.073637
	C2166	C	0.097586	0.488849	0.065911
	C2167	C	0.106127	0.488327	0.055524
	C2168	C	0.086272	0.500520	0.084166
	C2169	C	0.084405	0.490489	0.092741
	C2170	C	0.074795	0.491032	0.102142
	C2171	C	0.066492	0.501596	0.103309
	C2172	C	0.068440	0.511712	0.094872
	C2173	C	0.078152	0.511213	0.085599
	H2174	H	0.073478	0.483126	0.108565
	H2175	H	0.106888	0.479889	0.049560
	H2176	H	0.062148	0.519968	0.095560
	H2177	H	0.118275	0.517507	0.058213
	H2178	H	0.090676	0.482217	0.092021
	H2179	H	0.091637	0.480856	0.067876
	H2180	H	0.103030	0.518454	0.076612
	H2181	H	0.079264	0.519033	0.079022
	N2182	N	0.129924	0.507039	0.038422
	C2183	C	0.122216	0.498187	0.041068
	H2184	H	0.121625	0.489841	0.034771
	N2185	N	0.054168	0.493413	0.121094
	C2186	C	0.055802	0.502030	0.112631
	H2187	H	0.049075	0.510105	0.111929
	C2188	C	0.896492	0.506180	0.065463
	C2189	C	0.897316	0.494718	0.072169
	C2190	C	0.906494	0.492668	0.081399
	C2191	C	0.915197	0.502002	0.084466
	C2192	C	0.914088	0.513593	0.077998
	C2193	C	0.905026	0.515612	0.068663
	C2194	C	0.925526	0.499642	0.093757
	C2195	C	0.928832	0.508801	0.102855
	C2196	C	0.938974	0.506805	0.111005
	C2197	C	0.946394	0.495588	0.110344
	C2198	C	0.942996	0.486328	0.101408
	C2199	C	0.932764	0.488285	0.093379
	H2200	H	0.941396	0.514063	0.117865
	H2201	H	0.904595	0.524537	0.063616
	H2202	H	0.948586	0.477594	0.100704
	H2203	H	0.890799	0.487319	0.069887
	H2204	H	0.923269	0.517551	0.103559
	H2205	H	0.920755	0.520926	0.080052
	H2206	H	0.906941	0.483728	0.086422
	H2207	H	0.930545	0.481101	0.086357
	N2208	N	0.879139	0.500026	0.052265
	C2209	C	0.887489	0.508160	0.055023
	H2210	H	0.888348	0.516941	0.049514
	N2211	N	0.960666	0.501720	0.126918
	C2212	C	0.957657	0.493703	0.118269
	H2213	H	0.963556	0.485159	0.116283
	C2214	C	0.710357	0.119159	0.056390
	C2215	C	0.700028	0.120012	0.065134
	C2216	C	0.698365	0.110995	0.074661
	C2217	C	0.706942	0.100702	0.075972
	C2218	C	0.717463	0.100092	0.067426
	C2219	C	0.719110	0.109058	0.057835
	C2220	C	0.704705	0.090651	0.085679
	C2221	C	0.714624	0.084938	0.092561
	C2222	C	0.712405	0.075264	0.101287
	C2223	C	0.700146	0.070764	0.103467
	C2224	C	0.690192	0.076511	0.096690
	C2225	C	0.692424	0.086223	0.088059
	H2226	H	0.720214	0.071018	0.106493
	H2227	H	0.727172	0.108191	0.051212
	H2228	H	0.680626	0.073240	0.098197
	H2229	H	0.693201	0.127785	0.064295
	H2230	H	0.724176	0.088285	0.091162
	H2231	H	0.724208	0.092226	0.068090
	H2232	H	0.690346	0.111971	0.081324
	H2233	H	0.684578	0.090261	0.082767
	N2234	N	0.703779	0.137401	0.044307
	C2235	C	0.711743	0.128183	0.045774
	H2236	H	0.719871	0.126561	0.039125
	N2237	N	0.706258	0.054840	0.118895
	C2238	C	0.697594	0.060251	0.112241
	H2239	H	0.687754	0.057069	0.112772
	C2240	C	0.566123	0.016277	0.163957
	C2241	C	0.570500	0.005890	0.171090
	C2242	C	0.583386	0.003953	0.173355
	C2243	C	0.592546	0.012251	0.168585
	C2244	C	0.588028	0.022763	0.161658
	C2245	C	0.575191	0.024746	0.159413
	C2246	C	0.606467	0.010001	0.170173
	C2247	C	0.614807	0.020132	0.170843
	C2248	C	0.627889	0.018164	0.171050
	C2249	C	0.633355	0.005918	0.170725
	C2250	C	0.625089	-0.004265	0.170649
	C2251	C	0.611983	-0.002254	0.170365
	H2252	H	0.634054	0.026207	0.171325
	H2253	H	0.572118	0.032860	0.153869
	H2254	H	0.629034	-0.013829	0.170495
	H2255	H	0.563650	-0.000721	0.174785
	H2256	H	0.610990	0.029740	0.171275
	H2257	H	0.594737	0.029290	0.157578
	H2258	H	0.586400	-0.004091	0.179027
	H2259	H	0.605913	-0.010336	0.169825
	N2260	N	0.544116	0.010318	0.163642
	C2261	C	0.552727	0.018200	0.160663
	H2262	H	0.550474	0.026636	0.154937
	N2263	N	0.654387	0.013417	0.167921
	C2264	C	0.647231	0.003969	0.169716
	H2265	H	0.651000	-0.005798	0.169643
	C2266	C	0.699459	0.908919	0.061563
	C2267	C	0.711227	0.910976	0.067151
	C2268	C	0.712516	0.920218	0.076611
	C2269	C	0.702118	0.927785	0.081006
	C2270	C	0.690336	0.925570	0.075461
	C2271	C	0.689032	0.916412	0.065970
	C2272	C	0.703355	0.937904	0.090917
	C2273	C	0.693792	0.940284	0.100332
	C2274	C	0.694604	0.950097	0.109228
	C2275	C	0.705028	0.958079	0.109128
	C2276	C	0.714705	0.955627	0.099877
	C2277	C	0.713898	0.945759	0.091030
	H2278	H	0.687046	0.951742	0.116321
	H2279	H	0.679822	0.915031	0.061841
	H2280	H	0.722850	0.961664	0.099581
	H2281	H	0.719384	0.905233	0.063954
	H2282	H	0.685677	0.934214	0.100756
	H2283	H	0.682154	0.931372	0.078439
	H2284	H	0.721696	0.921488	0.080851
	H2285	H	0.721378	0.944301	0.083816
	N2286	N	0.706846	0.892133	0.047042
	C2287	C	0.697820	0.899500	0.051325
	H2288	H	0.688236	0.898991	0.047418
	N2289	N	0.696985	0.971166	0.126657
	C2290	C	0.705724	0.968813	0.118138
	H2291	H	0.714104	0.974713	0.117171
	C2292	C	0.488666	0.015256	0.851539
	C2293	C	0.513767	-0.007915	0.851604
	H2294	H	0.522231	-0.007659	0.857480
	H2295	H	0.514624	-0.016398	0.845595
	C2296	C	0.500595	0.016021	0.859908
	C2297	C	0.489151	0.003066	0.842994
	C2298	C	0.501796	-0.008205	0.860423
	C2299	C	0.513374	0.003789	0.842539
	C2300	C	0.512627	0.015938	0.851048
	C2301	C	0.489918	-0.008628	0.851945
	C2302	C	0.501137	0.004140	0.868567
	C2303	C	0.501328	0.003205	0.834252
	H2304	H	0.512325	0.024391	0.845132
	H2305	H	0.481495	-0.008856	0.858260
	H2306	H	0.509407	0.004452	0.874723
	H2307	H	0.501827	-0.005272	0.828174
	H2308	H	0.521048	0.016357	0.856975
	H2309	H	0.490554	-0.017337	0.846263
	H2310	H	0.492779	0.004180	0.874998
	H2311	H	0.500860	0.011337	0.827840
	H2312	H	0.480161	0.015295	0.857753
	H2313	H	0.487827	0.023430	0.845247
	C2314	C	0.500145	0.027976	0.868673
	O2315	O	0.501755	0.027087	0.880138
	N2316	N	0.498101	0.039649	0.862698
	H2317	H	0.496025	0.040039	0.853208
	C2318	C	0.477041	0.003360	0.834672
	O2319	O	0.474800	0.012460	0.827987
	N2320	N	0.469160	-0.007029	0.835522
	H2321	H	0.472654	-0.015383	0.838919
	C2322	C	0.502091	-0.019684	0.869679
	O2323	O	0.499437	-0.018265	0.881005
	N2324	N	0.505181	-0.031561	0.864287
	H2325	H	0.508017	-0.032367	0.854905
	C2326	C	0.525657	0.003115	0.834032
	O2327	O	0.530898	-0.007029	0.831735
	N2328	N	0.530546	0.014491	0.829664
	H2329	H	0.524779	0.022297	0.828955
	C2330	C	0.690162	0.861536	0.000465
	C2331	C	0.716303	0.853747	0.020517
	H2332	H	0.726130	0.856526	0.019167
	H2333	H	0.715839	0.848250	0.029381
	C2334	C	0.704014	0.865619	-0.002168
	C2335	C	0.689237	0.853627	0.012968
	C2336	C	0.707737	0.865901	0.022037
	C2337	C	0.712004	0.845540	0.009061
	C2338	C	0.712614	0.853459	-0.003443
	C2339	C	0.693893	0.861782	0.024363
	C2340	C	0.708583	0.873560	0.009377
	C2341	C	0.697980	0.841754	0.011621
	H2342	H	0.709596	0.847723	-0.011556
	H2343	H	0.687377	0.869898	0.025531
	H2344	H	0.718418	0.876228	0.007597
	H2345	H	0.697381	0.836158	0.020415
	H2346	H	0.722344	0.856170	-0.005610
	H2347	H	0.693288	0.856341	0.033262
	H2348	H	0.702948	0.882307	0.010389
	H2349	H	0.695066	0.835705	0.003734
	H2350	H	0.683677	0.869700	0.001514
	H2351	H	0.687055	0.856031	-0.007760
	C2352	C	0.704927	0.873411	-0.014766
	O2353	O	0.711891	0.870035	-0.023606
	N2354	N	0.697179	0.884339	-0.014996
	H2355	H	0.691155	0.886288	-0.007415
	C2356	C	0.675230	0.850301	0.015756
	O2357	O	0.669603	0.854658	0.025153
	N2358	N	0.669281	0.842734	0.006760
	H2359	H	0.674499	0.838572	-0.000523
	C2360	C	0.712275	0.874074	0.033466
	O2361	O	0.722284	0.871836	0.038568
	N2362	N	0.704079	0.884049	0.037265
	H2363	H	0.696037	0.885616	0.032250
	C2364	C	0.720320	0.833288	0.007555
	O2365	O	0.715552	0.822980	0.007790
	N2366	N	0.733355	0.834761	0.005807
	H2367	H	0.736854	0.843624	0.005640
	C2368	C	0.691781	0.155625	0.010093
	C2369	C	0.716210	0.162155	-0.013079
	H2370	H	0.725736	0.157882	-0.013721
	H2371	H	0.715381	0.168721	-0.021122
	C2372	C	0.705365	0.149610	0.010116
	C2373	C	0.690251	0.164868	-0.001365
	C2374	C	0.706414	0.151506	-0.014487
	C2375	C	0.714013	0.169468	-0.000219
	C2376	C	0.715195	0.160153	0.011217
	C2377	C	0.692884	0.157652	-0.014235
	C2378	C	0.707780	0.142461	-0.002904
	C2379	C	0.700286	0.175280	-0.000064
	H2380	H	0.713776	0.165519	0.020163
	H2381	H	0.685740	0.150546	-0.015548
	H2382	H	0.717329	0.138142	-0.003093
	H2383	H	0.699361	0.182016	-0.007952
	H2384	H	0.724693	0.155803	0.011392
	H2385	H	0.692055	0.164284	-0.022229
	H2386	H	0.701156	0.134740	-0.003555
	H2387	H	0.698483	0.180663	0.008835
	H2388	H	0.685090	0.147963	0.009658
	H2389	H	0.689735	0.160875	0.019012
	C2390	C	0.706533	0.140012	0.021274
	O2391	O	0.708649	0.128895	0.018992
	N2392	N	0.704815	0.144863	0.033751
	H2393	H	0.702810	0.154257	0.035093
	C2394	C	0.676677	0.171006	-0.001306
	O2395	O	0.674939	0.182333	-0.001931
	N2396	N	0.666748	0.162578	-0.000204
	H2397	H	0.668783	0.153135	-0.000397
	C2398	C	0.709135	0.144181	-0.027302
	O2399	O	0.718023	0.146731	-0.034300
	N2400	N	0.700729	0.134638	-0.030166
	H2401	H	0.693684	0.132726	-0.023700
	C2402	C	0.723711	0.180169	0.001204
	O2403	O	0.720185	0.191008	0.003161
	N2404	N	0.736511	0.176344	0.000420
	H2405	H	0.738833	0.167014	-0.000895
	C2406	C	0.004796	0.688055	0.857799
	C2407	C	0.024522	0.714364	0.851283
	H2408	H	0.023318	0.723985	0.855041
	H2409	H	0.033232	0.714099	0.845361
	C2410	C	0.002100	0.701701	0.862936
	C2411	C	0.017069	0.687482	0.849214
	C2412	C	0.026060	0.705242	0.862835
	C2413	C	0.013138	0.710591	0.842984
	C2414	C	0.000785	0.710884	0.851460
	C2415	C	0.028372	0.691698	0.857470
	C2416	C	0.013592	0.705757	0.870999
	C2417	C	0.015608	0.696797	0.837897
	H2418	H	-0.007124	0.708376	0.845438
	H2419	H	0.029679	0.684915	0.865218
	H2420	H	0.011910	0.715359	0.874747
	H2421	H	0.024256	0.696446	0.831878
	H2422	H	-0.001253	0.720400	0.855225
	H2423	H	0.037123	0.691358	0.851600
	H2424	H	0.014308	0.699559	0.879316
	H2425	H	0.007820	0.694140	0.831785
	H2426	H	0.005918	0.681619	0.865911
	H2427	H	-0.003229	0.684850	0.852346
	C2428	C	-0.009948	0.702194	0.871786
	O2429	O	-0.009138	0.704657	0.883134
	N2430	N	-0.021482	0.699713	0.866015
	H2431	H	-0.021597	0.697086	0.856592
	C2432	C	0.019965	0.673729	0.844564
	O2433	O	0.029762	0.668295	0.847448
	N2434	N	0.010672	0.667704	0.837561
	H2435	H	0.003126	0.672804	0.834284
	C2436	C	0.037358	0.709218	0.871193
	O2437	O	0.043526	0.718386	0.868603
	N2438	N	0.039603	0.701619	0.881858
	H2439	H	0.034074	0.693994	0.883253
	C2440	C	0.011545	0.719692	0.831443
	O2441	O	0.011322	0.715647	0.820532
	N2442	N	0.010018	0.732509	0.834636
	H2443	H	0.009930	0.735183	0.844067
	C2444	C	0.310776	0.142632	-0.001194
	C2445	C	0.282968	0.150995	0.017603
	H2446	H	0.273491	0.147265	0.016612
	H2447	H	0.282512	0.157566	0.025779
	C2448	C	0.297381	0.137464	-0.003592
	C2449	C	0.310366	0.152143	0.010290
	C2450	C	0.292260	0.139783	0.020537
	C2451	C	0.287326	0.158044	0.005286
	C2452	C	0.288011	0.148635	-0.006284
	C2453	C	0.305571	0.145157	0.022517
	C2454	C	0.292750	0.130657	0.008817
	C2455	C	0.300893	0.163134	0.007458
	H2456	H	0.290917	0.153742	-0.014898
	H2457	H	0.312492	0.137684	0.024723
	H2458	H	0.283314	0.126906	0.007372
	H2459	H	0.300549	0.169813	0.015547
	H2460	H	0.278668	0.144858	-0.008065
	H2461	H	0.305217	0.151690	0.030732
	H2462	H	0.299090	0.122553	0.010579
	H2463	H	0.303924	0.168361	-0.001029
	H2464	H	0.317325	0.134757	0.000904
	H2465	H	0.314438	0.147232	-0.009794
	C2466	C	0.297844	0.127766	-0.014874
	O2467	O	0.294964	0.116893	-0.013088
	N2468	N	0.301703	0.132257	-0.026921
	H2469	H	0.304417	0.141367	-0.027853
	C2470	C	0.323904	0.156771	0.012892
	O2471	O	0.328921	0.154496	0.023037
	N2472	N	0.330256	0.163022	0.002961
	H2473	H	0.325430	0.165857	-0.004911
	C2474	C	0.287659	0.132665	0.032750
	O2475	O	0.277580	0.135302	0.038033
	N2476	N	0.295955	0.123206	0.037064
	H2477	H	0.304060	0.121299	0.031845
	C2478	C	0.278095	0.169284	0.002338
	O2479	O	0.282064	0.179806	0.000702
	N2480	N	0.265308	0.166312	0.001401
	H2481	H	0.262744	0.157132	0.002235
	C2482	C	0.309636	0.853897	-0.004981
	C2483	C	0.283218	0.846327	-0.024293
	H2484	H	0.273310	0.849223	-0.022610
	H2485	H	0.283646	0.840795	-0.033226
	C2486	C	0.295687	0.858141	-0.001878
	C2487	C	0.310521	0.845918	-0.017588
	C2488	C	0.291229	0.858384	-0.025932
	C2489	C	0.288205	0.838104	-0.013080
	C2490	C	0.287638	0.846076	-0.000485
	C2491	C	0.305181	0.854090	-0.028730
	C2492	C	0.290444	0.866102	-0.013172
	C2493	C	0.302318	0.834140	-0.016106
	H2494	H	0.291140	0.840331	0.007458
	H2495	H	0.311342	0.862117	-0.029988
	H2496	H	0.280547	0.868894	-0.011061
	H2497	H	0.302888	0.828505	-0.024973
	H2498	H	0.277857	0.848910	0.002018
	H2499	H	0.305744	0.848610	-0.037703
	H2500	H	0.295693	0.874780	-0.014266
	H2501	H	0.305738	0.828088	-0.008391
	H2502	H	0.315739	0.861995	-0.006134
	H2503	H	0.313212	0.848398	0.003087
	C2504	C	0.294809	0.865942	0.010846
	O2505	O	0.288245	0.862618	0.019831
	N2506	N	0.302083	0.876802	0.011052
	H2507	H	0.307788	0.878753	0.003336
	C2508	C	0.324594	0.842438	-0.020844
	O2509	O	0.329662	0.846421	-0.030537
	N2510	N	0.331267	0.835249	-0.011885
	H2511	H	0.326488	0.831223	-0.004432
	C2512	C	0.285978	0.866575	-0.037100
	O2513	O	0.275786	0.864575	-0.041728
	N2514	N	0.293777	0.876249	-0.041268
	H2515	H	0.301967	0.877706	-0.036580
	C2516	C	0.280398	0.825977	-0.011447
	O2517	O	0.285529	0.815585	-0.011996
	N2518	N	0.267370	0.827700	-0.009202
	H2519	H	0.263580	0.836637	-0.008820
	C2520	C	0.147847	0.490089	-0.020944
	C2521	C	0.148103	0.515503	0.001977
	H2522	H	0.141967	0.523970	0.002115
	H2523	H	0.154366	0.516181	0.010157
	C2524	C	0.139449	0.502290	-0.021621
	C2525	C	0.156400	0.490392	-0.008957
	C2526	C	0.139597	0.503848	0.003126
	C2527	C	0.156521	0.514654	-0.010505
	C2528	C	0.147989	0.513935	-0.022468
	C2529	C	0.148019	0.491664	0.003479
	C2530	C	0.131254	0.503333	-0.009007
	C2531	C	0.164831	0.502251	-0.009968
	H2532	H	0.154041	0.513421	-0.031131
	H2533	H	0.141839	0.483621	0.004628
	H2534	H	0.125079	0.511800	-0.009285
	H2535	H	0.171092	0.502618	-0.001739
	H2536	H	0.141896	0.522379	-0.023251
	H2537	H	0.154187	0.491775	0.011781
	H2538	H	0.124994	0.495265	-0.008372
	H2539	H	0.170994	0.501487	-0.018551
	H2540	H	0.141626	0.482014	-0.020746
	H2541	H	0.154031	0.489014	-0.029460
	C2542	C	0.130486	0.501858	-0.033247
	O2543	O	0.119163	0.503719	-0.031720
	N2544	N	0.136095	0.499281	-0.045333
	H2545	H	0.145628	0.497687	-0.046246
	C2546	C	0.164653	0.478001	-0.008492
	O2547	O	0.176113	0.478021	-0.008639
	N2548	N	0.157663	0.466992	-0.008001
	H2549	H	0.148041	0.467894	-0.007520
	C2550	C	0.130821	0.504731	0.015292
	O2551	O	0.119425	0.503979	0.014427
	N2552	N	0.136704	0.506234	0.027109
	H2553	H	0.146241	0.507342	0.027472
	C2554	C	0.164939	0.526486	-0.011368
	O2555	O	0.176391	0.525671	-0.011936
	N2556	N	0.158151	0.537992	-0.011190
	H2557	H	0.148522	0.537803	-0.011402
	C2558	C	0.860096	0.493063	0.017302
	C2559	C	0.859591	0.518305	-0.005481
	H2560	H	0.865699	0.526468	-0.005618
	H2561	H	0.853262	0.519228	-0.013605
	C2562	C	0.868458	0.504854	0.017977
	C2563	C	0.851453	0.493694	0.005380
	C2564	C	0.868129	0.506210	-0.006757
	C2565	C	0.851265	0.517980	0.007054
	C2566	C	0.859887	0.516936	0.018945
	C2567	C	0.859744	0.494437	-0.007112
	C2568	C	0.876560	0.505382	0.005312
	C2569	C	0.842996	0.505986	0.006516
	H2570	H	0.853897	0.516798	0.027650
	H2571	H	0.865936	0.486068	-0.008332
	H2572	H	0.882713	0.513543	0.005585
	H2573	H	0.836671	0.506597	-0.001662
	H2574	H	0.865957	0.525088	0.019719
	H2575	H	0.853523	0.494789	-0.015373
	H2576	H	0.882842	0.496994	0.004592
	H2577	H	0.836896	0.505600	0.015141
	H2578	H	0.866340	0.484673	0.017004
	H2579	H	0.853982	0.492365	0.025862
	C2580	C	0.877510	0.504093	0.029528
	O2581	O	0.888826	0.505319	0.027909
	N2582	N	0.871994	0.502012	0.041663
	H2583	H	0.862477	0.500863	0.042652
	C2584	C	0.843191	0.481741	0.004951
	O2585	O	0.831729	0.482400	0.005168
	N2586	N	0.850126	0.470322	0.004438
	H2587	H	0.859748	0.470643	0.003801
	C2588	C	0.876844	0.506591	-0.018961
	O2589	O	0.888238	0.505146	-0.018165
	N2590	N	0.870929	0.508525	-0.030720
	H2591	H	0.861382	0.510080	-0.031023
	C2592	C	0.842792	0.530223	0.008053
	O2593	O	0.831345	0.529951	0.008714
	N2594	N	0.849500	0.541418	0.007896
	H2595	H	0.859137	0.540794	0.007979
	C2596	C	0.511237	0.016684	0.142955
	C2597	C	0.487227	-0.006464	0.142723
	H2598	H	0.479233	-0.006443	0.136206
	H2599	H	0.486826	-0.014785	0.148835
	C2600	C	0.499586	0.017066	0.134082
	C2601	C	0.511021	0.004905	0.151808
	C2602	C	0.499606	-0.007175	0.134363
	C2603	C	0.486678	0.005643	0.151291
	C2604	C	0.487254	0.017409	0.142415
	C2605	C	0.511197	-0.007196	0.143199
	C2606	C	0.499955	0.004782	0.125805
	C2607	C	0.498483	0.005439	0.160020
	H2608	H	0.486633	0.025941	0.148391
	H2609	H	0.519942	-0.007675	0.137344
	H2610	H	0.491911	0.004883	0.119334
	H2611	H	0.498146	-0.002733	0.166387
	H2612	H	0.479026	0.017657	0.136195
	H2613	H	0.511297	-0.015498	0.149386
	H2614	H	0.508533	0.004438	0.119683
	H2615	H	0.498281	0.013853	0.166193
	H2616	H	0.519757	0.016398	0.136764
	H2617	H	0.511171	0.025236	0.148871
	C2618	C	0.500031	0.028631	0.124990
	O2619	O	0.500554	0.027200	0.113418
	N2620	N	0.499900	0.040602	0.130816
	H2621	H	0.499581	0.041472	0.140563
	C2622	C	0.522684	0.003821	0.160713
	O2623	O	0.523459	-0.004752	0.168368
	N2624	N	0.532223	0.012603	0.159076
	H2625	H	0.530686	0.020295	0.153497
	C2626	C	0.499879	-0.019100	0.125573
	O2627	O	0.500429	-0.018150	0.113972
	N2628	N	0.499309	-0.030808	0.131726
	H2629	H	0.498890	-0.031258	0.141491
	C2630	C	0.474249	0.006984	0.159647
	O2631	O	0.472629	0.015978	0.166846
	N2632	N	0.465089	-0.002144	0.158034
	H2633	H	0.467293	-0.010115	0.152899
	C2634	C	0.000074	0.687900	0.141140
	C2635	C	-0.020511	0.714563	0.148335
	H2636	H	-0.019608	0.724205	0.144840
	H2637	H	-0.029225	0.714413	0.154236
	C2638	C	0.002344	0.701552	0.136376
	C2639	C	-0.012198	0.687488	0.149687
	C2640	C	-0.021738	0.705612	0.136535
	C2641	C	-0.009016	0.710439	0.156548
	C2642	C	0.003344	0.710568	0.148100
	C2643	C	-0.023626	0.692049	0.141529
	C2644	C	-0.009269	0.705955	0.128405
	C2645	C	-0.011055	0.696635	0.161257
	H2646	H	0.011326	0.707815	0.154066
	H2647	H	-0.024700	0.685387	0.133596
	H2648	H	-0.007887	0.715569	0.124920
	H2649	H	-0.019704	0.696398	0.167253
	H2650	H	0.005085	0.720088	0.144597
	H2651	H	-0.032378	0.691824	0.147374
	H2652	H	-0.009772	0.699872	0.119920
	H2653	H	-0.003189	0.693739	0.167308
	H2654	H	-0.000828	0.681585	0.132854
	H2655	H	0.008191	0.684450	0.146522
	C2656	C	0.014398	0.701886	0.127564
	O2657	O	0.013535	0.704510	0.116284
	N2658	N	0.025998	0.699066	0.133294
	H2659	H	0.026167	0.696330	0.142648
	C2660	C	-0.014652	0.673735	0.153948
	O2661	O	-0.024224	0.668510	0.150818
	N2662	N	-0.005219	0.667465	0.160899
	H2663	H	0.002117	0.672390	0.164380
	C2664	C	-0.033156	0.709926	0.128267
	O2665	O	-0.039620	0.719204	0.131083
	N2666	N	-0.035152	0.702481	0.117414
	H2667	H	-0.029359	0.694764	0.115820
	C2668	C	-0.007716	0.719358	0.168339
	O2669	O	-0.007376	0.715166	0.179137
	N2670	N	-0.006578	0.732182	0.165502
	H2671	H	-0.006604	0.734977	0.156148
	C2672	C	0.501999	0.897300	0.937394
	C2673	C	0.491438	0.897811	0.929408
	C2674	C	0.490631	0.906508	0.919449
	C2675	C	0.500378	0.915015	0.916912
	C2676	C	0.511066	0.914250	0.924737
	C2677	C	0.511834	0.905671	0.934780
	C2678	C	0.499352	0.924782	0.906712
	C2679	C	0.509712	0.927609	0.898590
	C2680	C	0.508904	0.937208	0.889534
	C2681	C	0.497708	0.944530	0.888248
	C2682	C	0.487270	0.941602	0.896200
	C2683	C	0.488059	0.931910	0.905146
	H2684	H	0.517072	0.939281	0.883475
	H2685	H	0.520076	0.905489	0.940822
	H2686	H	0.478531	0.947138	0.895415
	H2687	H	0.483751	0.891418	0.931235
	H2688	H	0.518471	0.922105	0.899379
	H2689	H	0.518665	0.920800	0.923135
	H2690	H	0.482377	0.906701	0.913422
	H2691	H	0.479953	0.930061	0.911377
	N2692	N	0.494293	0.880450	0.950772
	C2693	C	0.502711	0.888719	0.948430
	H2694	H	0.510880	0.889744	0.954707
	N2695	N	0.506137	0.957778	0.871525
	C2696	C	0.496963	0.955216	0.879299
	H2697	H	0.488183	0.961053	0.879708
	C2698	C	0.501825	0.112179	0.935058
	C2699	C	0.512750	0.111072	0.927124
	C2700	C	0.513567	0.102335	0.917041
	C2701	C	0.503477	0.094385	0.914326
	C2702	C	0.492433	0.095783	0.922080
	C2703	C	0.491645	0.104398	0.932242
	C2704	C	0.504484	0.084466	0.904093
	C2705	C	0.494350	0.082015	0.895960
	C2706	C	0.495035	0.072157	0.887015
	C2707	C	0.505868	0.064189	0.885861
	C2708	C	0.516116	0.066768	0.893783
	C2709	C	0.515458	0.076709	0.902618
	H2710	H	0.487028	0.070367	0.880969
	H2711	H	0.483112	0.105050	0.938236
	H2712	H	0.524579	0.060743	0.893092
	H2713	H	0.520707	0.117005	0.929113
	H2714	H	0.485861	0.088002	0.896671
	H2715	H	0.484550	0.089673	0.920347
	H2716	H	0.522118	0.101656	0.911075
	H2717	H	0.523378	0.078260	0.908853
	N2718	N	0.509767	0.128498	0.948900
	C2719	C	0.501042	0.120710	0.946279
	H2720	H	0.492520	0.120061	0.952505
	N2721	N	0.497403	0.050733	0.869486
	C2722	C	0.506388	0.053151	0.877177
	H2723	H	0.514804	0.046840	0.877776
	C2724	C	0.804691	0.761228	-0.007948
	C2725	C	0.807672	0.771399	0.000088
	C2726	C	0.799374	0.781746	0.001800
	C2727	C	0.787656	0.782449	-0.004377
	C2728	C	0.784680	0.772198	-0.012346
	C2729	C	0.792992	0.761859	-0.014125
	C2730	C	0.778798	0.793559	-0.002502
	C2731	C	0.765594	0.792143	-0.001579
	C2732	C	0.757329	0.802504	0.000235
	C2733	C	0.761858	0.814836	0.001151
	C2734	C	0.775032	0.816324	0.000183
	C2735	C	0.783278	0.805934	-0.001571
	H2736	H	0.747186	0.801114	0.001004
	H2737	H	0.790464	0.754117	-0.020365
	H2738	H	0.778782	0.825740	0.000816
	H2739	H	0.816611	0.771095	0.005035
	H2740	H	0.761789	0.782736	-0.002005
	H2741	H	0.775811	0.772495	-0.017415
	H2742	H	0.801871	0.789323	0.008256
	H2743	H	0.793388	0.807401	-0.002500
	N2744	N	0.824164	0.749793	-0.004217
	C2745	C	0.813529	0.750342	-0.009918
	H2746	H	0.810639	0.743029	-0.016700
	N2747	N	0.741120	0.824396	0.004111
	C2748	C	0.753123	0.825802	0.003055
	H2749	H	0.757320	0.835178	0.003513
	C2750	C	0.569764	0.850804	-0.005022
	C2751	C	0.573914	0.838102	-0.005973
	C2752	C	0.586765	0.834742	-0.005328
	C2753	C	0.595995	0.843900	-0.003554
	C2754	C	0.591761	0.856603	-0.002730
	C2755	C	0.579002	0.859987	-0.003481
	C2756	C	0.609778	0.840776	-0.002482
	C2757	C	0.616950	0.847052	0.006704
	C2758	C	0.629982	0.845109	0.007362
	C2759	C	0.636551	0.836794	-0.001182
	C2760	C	0.629396	0.830149	-0.010091
	C2761	C	0.616285	0.832063	-0.010676
	H2762	H	0.635242	0.850182	0.014509
	H2763	H	0.576099	0.869877	-0.002807
	H2764	H	0.634229	0.823578	-0.016695
	H2765	H	0.566916	0.830884	-0.007181
	H2766	H	0.612165	0.853473	0.013502
	H2767	H	0.598679	0.863924	-0.001711
	H2768	H	0.589729	0.824862	-0.005906
	H2769	H	0.610986	0.827058	-0.017828
	N2770	N	0.547127	0.847214	-0.006029
	C2771	C	0.556364	0.854854	-0.005432
	H2772	H	0.554504	0.865135	-0.004865
	N2773	N	0.656443	0.842576	0.007028
	C2774	C	0.650503	0.835769	-0.000946
	H2775	H	0.655413	0.829581	-0.008055
	C2776	C	0.632350	0.162238	0.004351
	C2777	C	0.627133	0.172173	-0.002887
	C2778	C	0.614043	0.174209	-0.003418
	C2779	C	0.605576	0.166538	0.003391
	C2780	C	0.610876	0.156771	0.010829
	C2781	C	0.623914	0.154615	0.011246
	C2782	C	0.591541	0.168180	0.002648
	C2783	C	0.583701	0.167323	0.013700
	C2784	C	0.570546	0.167776	0.012956
	C2785	C	0.564569	0.168989	0.001077
	C2786	C	0.572356	0.170275	-0.009945
	C2787	C	0.585526	0.169964	-0.009154
	H2788	H	0.564750	0.166960	0.021631
	H2789	H	0.627668	0.146911	0.016962
	H2790	H	0.567963	0.171375	-0.019210
	H2791	H	0.633485	0.178245	-0.008188
	H2792	H	0.588060	0.166356	0.022997
	H2793	H	0.604585	0.150590	0.016059
	H2794	H	0.610252	0.181966	-0.009044
	H2795	H	0.591318	0.170672	-0.017848
	N2796	N	0.654348	0.166568	-0.000635
	C2797	C	0.646067	0.159457	0.004628
	H2798	H	0.649037	0.150834	0.009728
	N2799	N	0.543693	0.166986	0.010220
	C2800	C	0.550699	0.168100	0.000108
	H2801	H	0.547112	0.167554	-0.009680
	C2802	C	0.105810	0.703443	0.959523
	C2803	C	0.101322	0.691701	0.955557
	C2804	C	0.092614	0.690830	0.945763
	C2805	C	0.087912	0.701622	0.939417
	C2806	C	0.092607	0.713339	0.943281
	C2807	C	0.101327	0.714242	0.953087
	C2808	C	0.078269	0.700576	0.929209
	C2809	C	0.078089	0.708532	0.918425
	C2810	C	0.068995	0.707431	0.908991
	C2811	C	0.059597	0.698314	0.909909
	C2812	C	0.059700	0.690378	0.920684
	C2813	C	0.068787	0.691499	0.930071
	H2814	H	0.069106	0.713638	0.900731
	H2815	H	0.104708	0.723420	0.955908
	H2816	H	0.052511	0.683298	0.921688
	H2817	H	0.104769	0.683200	0.960241
	H2818	H	0.085356	0.715517	0.917292
	H2819	H	0.089130	0.721889	0.938711
	H2820	H	0.089561	0.681578	0.942791
	H2821	H	0.068385	0.685405	0.938395
	N2822	N	0.118410	0.694621	0.976352
	C2823	C	0.114770	0.704425	0.970117
	H2824	H	0.117792	0.713971	0.972594
	N2825	N	0.049064	0.703985	0.890217
	C2826	C	0.049887	0.696867	0.900130
	H2827	H	0.043121	0.689277	0.901781
	C2828	C	0.902259	0.701310	0.936188
	C2829	C	0.904948	0.713188	0.931012
	C2830	C	0.914443	0.714510	0.921628
	C2831	C	0.921668	0.704044	0.916915
	C2832	C	0.918778	0.692149	0.921999
	C2833	C	0.909345	0.690803	0.931404
	C2834	C	0.932185	0.705362	0.907234
	C2835	C	0.934675	0.696154	0.897621
	C2836	C	0.944927	0.697010	0.889041
	C2837	C	0.953227	0.707141	0.889656
	C2838	C	0.950621	0.716515	0.899046
	C2839	C	0.940337	0.715656	0.907584
	H2840	H	0.946684	0.689705	0.881815
	H2841	H	0.907453	0.681509	0.935197
	H2842	H	0.956895	0.724432	0.899734
	H2843	H	0.899508	0.721415	0.934481
	H2844	H	0.928379	0.688271	0.896811
	H2845	H	0.924282	0.683890	0.918754
	H2846	H	0.916193	0.723792	0.917726
	H2847	H	0.938802	0.722870	0.914945
	N2848	N	0.885833	0.708979	0.951072
	C2849	C	0.892599	0.699709	0.946409
	H2850	H	0.891424	0.690037	0.949971
	N2851	N	0.967335	0.699173	0.872768
	C2852	C	0.964546	0.707780	0.881187
	H2853	H	0.970620	0.715931	0.882604
	C2854	C	0.363404	0.168288	-0.005330
	C2855	C	0.369558	0.160677	0.003761
	C2856	C	0.382641	0.158820	0.003366
	C2857	C	0.390289	0.164504	-0.006079
	C2858	C	0.384170	0.172527	-0.014852
	C2859	C	0.371015	0.174330	-0.014543
	C2860	C	0.404181	0.161562	-0.006747
	C2861	C	0.413350	0.170778	-0.008820
	C2862	C	0.426287	0.167643	-0.009088
	C2863	C	0.430617	0.155100	-0.007455
	C2864	C	0.421457	0.145845	-0.005594
	C2865	C	0.408598	0.149016	-0.005203
	H2866	H	0.433214	0.174924	-0.010543
	H2867	H	0.366516	0.180366	-0.021579
	H2868	H	0.424498	0.136069	-0.004375
	H2869	H	0.363939	0.156081	0.011144
	H2870	H	0.410246	0.180552	-0.009935
	H2871	H	0.389837	0.177072	-0.022218
	H2872	H	0.387089	0.152949	0.010582
	H2873	H	0.401757	0.141634	-0.003905
	N2874	N	0.343084	0.163270	0.003246
	C2875	C	0.349431	0.169248	-0.005274
	H2876	H	0.344881	0.174774	-0.012854
	N2877	N	0.453194	0.159163	-0.008293
	C2878	C	0.444119	0.151326	-0.007523
	H2879	H	0.446185	0.141117	-0.006641
	C2880	C	0.198214	0.756357	0.006892
	C2881	C	0.194763	0.766525	-0.001028
	C2882	C	0.202787	0.776593	-0.002986
	C2883	C	0.214687	0.777001	0.002811
	C2884	C	0.218135	0.766751	0.010660
	C2885	C	0.210098	0.756692	0.012687
	C2886	C	0.223242	0.787819	0.000675
	C2887	C	0.236453	0.785989	-0.000728
	C2888	C	0.244424	0.796081	-0.002813
	C2889	C	0.239576	0.808543	-0.003543
	C2890	C	0.226393	0.810441	-0.002108
	C2891	C	0.218441	0.800320	-0.000084
	H2892	H	0.254578	0.794379	-0.003944
	H2893	H	0.212988	0.748942	0.018824
	H2894	H	0.222401	0.819966	-0.002590
	H2895	H	0.185674	0.766441	-0.005687
	H2896	H	0.240487	0.776467	-0.000454
	H2897	H	0.227162	0.766833	0.015437
	H2898	H	0.199925	0.784172	-0.009344
	H2899	H	0.208324	0.802105	0.001201
	N2900	N	0.178891	0.745468	0.003704
	C2901	C	0.189679	0.745755	0.009092
	H2902	H	0.192942	0.738420	0.015748
	N2903	N	0.259986	0.817515	-0.007252
	C2904	C	0.247977	0.819242	-0.005713
	H2905	H	0.243506	0.828725	-0.006040
	C2906	C	0.364544	0.830746	-0.004179
	C2907	C	0.370301	0.839000	-0.012928
	C2908	C	0.383126	0.841509	-0.012362
	C2909	C	0.390890	0.835893	-0.003063
	C2910	C	0.385241	0.827195	0.005310
	C2911	C	0.372336	0.824716	0.004819
	C2912	C	0.404341	0.839652	-0.002070
	C2913	C	0.414437	0.830990	-0.000104
	C2914	C	0.426924	0.834942	0.000539
	C2915	C	0.429829	0.847770	-0.000602
	C2916	C	0.419726	0.856461	-0.002368
	C2917	C	0.407332	0.852486	-0.003121
	H2918	H	0.434604	0.828095	0.001910
	H2919	H	0.368149	0.818190	0.011574
	H2920	H	0.421662	0.866435	-0.003207
	H2921	H	0.364557	0.843586	-0.020155
	H2922	H	0.412443	0.821020	0.000638
	H2923	H	0.391018	0.822673	0.012539
	H2924	H	0.387284	0.847873	-0.019306
	H2925	H	0.399722	0.859444	-0.004308
	N2926	N	0.344103	0.835492	-0.012321
	C2927	C	0.350703	0.829198	-0.004271
	H2928	H	0.346409	0.823059	0.002976
	N2929	N	0.452745	0.845232	0.000669
	C2930	C	0.442796	0.852428	-0.000113
	H2931	H	0.443658	0.862754	-0.000768
	C2932	C	0.176461	0.637770	-0.003340
	C2933	C	0.169541	0.631599	0.006337
	C2934	C	0.167466	0.618710	0.005627
	C2935	C	0.172201	0.611289	-0.004758
	C2936	C	0.179650	0.617361	-0.014109
	C2937	C	0.181688	0.630325	-0.013463
	C2938	C	0.168740	0.597764	-0.005830
	C2939	C	0.177365	0.588025	-0.009657
	C2940	C	0.173670	0.575477	-0.010455
	C2941	C	0.161122	0.572146	-0.007607
	C2942	C	0.152460	0.581889	-0.003909
	C2943	C	0.156194	0.594337	-0.003007
	H2944	H	0.180501	0.568083	-0.013310
	H2945	H	0.187200	0.634829	-0.020970
	H2946	H	0.142694	0.579630	-0.001697
	H2947	H	0.165624	0.637069	0.014417
	H2948	H	0.187136	0.590343	-0.011776
	H2949	H	0.183494	0.611864	-0.022192
	H2950	H	0.162125	0.614240	0.013290
	H2951	H	0.149226	0.601658	-0.000327
	N2952	N	0.171676	0.657921	0.006078
	C2953	C	0.177365	0.651652	-0.003005
	H2954	H	0.182392	0.656241	-0.010967
	N2955	N	0.163907	0.549421	-0.010881
	C2956	C	0.156684	0.559127	-0.008338
	H2957	H	0.146473	0.557992	-0.006394
	C2958	C	0.829544	0.641916	0.001694
	C2959	C	0.836632	0.635545	-0.008063
	C2960	C	0.838977	0.622582	-0.007567
	C2961	C	0.834360	0.615282	0.002674
	C2962	C	0.826762	0.621576	0.012114
	C2963	C	0.824452	0.634611	0.011682
	C2964	C	0.838057	0.601623	0.003504
	C2965	C	0.829597	0.592194	0.007205
	C2966	C	0.833498	0.579505	0.007795
	C2967	C	0.846098	0.575711	0.004866
	C2968	C	0.854600	0.585142	0.001311
	C2969	C	0.850660	0.597736	0.000616
	H2970	H	0.826788	0.572359	0.010548
	H2971	H	0.818821	0.639274	0.019251
	H2972	H	0.864403	0.582522	-0.000952
	H2973	H	0.840457	0.640912	-0.016041
	H2974	H	0.819788	0.594868	0.009381
	H2975	H	0.823010	0.616182	0.020095
	H2976	H	0.844435	0.617959	-0.015293
	H2977	H	0.857510	0.604805	-0.001956
	N2978	N	0.833858	0.661954	-0.007400
	C2979	C	0.828310	0.655831	0.001577
	H2980	H	0.823150	0.660556	0.009600
	N2981	N	0.843631	0.553098	0.007792
	C2982	C	0.850728	0.562512	0.005371
	H2983	H	0.860949	0.560971	0.003369
	C2984	C	0.501580	0.111375	0.057175
	C2985	C	0.489901	0.110212	0.063755
	C2986	C	0.488432	0.101498	0.073614
	C2987	C	0.498580	0.093626	0.077469
	C2988	C	0.510337	0.095060	0.071080
	C2989	C	0.511791	0.103650	0.061119
	C2990	C	0.496927	0.083819	0.087534
	C2991	C	0.505956	0.081721	0.097083
	C2992	C	0.504655	0.072100	0.106050
	C2993	C	0.494317	0.064010	0.105794
	C2994	C	0.485188	0.066184	0.096372
	C2995	C	0.486428	0.075904	0.087527
	H2996	H	0.511804	0.070607	0.113250
	H2997	H	0.520897	0.104338	0.056172
	H2998	H	0.477135	0.060050	0.095952
	H2999	H	0.481893	0.116092	0.060893
	H3000	H	0.514035	0.087822	0.097480
	H3001	H	0.518300	0.089008	0.073726
	H3002	H	0.479311	0.100780	0.078527
	H3003	H	0.479391	0.077177	0.080174
	N3004	N	0.494199	0.127685	0.042851
	C3005	C	0.503085	0.119960	0.046211
	H3006	H	0.512237	0.119413	0.040941
	N3007	N	0.500950	0.051401	0.123826
	C3008	C	0.493215	0.053285	0.114637
	H3009	H	0.485495	0.046747	0.112879
	C3010	C	0.497391	0.896402	0.059449
	C3011	C	0.508917	0.897162	0.065883
	C3012	C	0.510460	0.905975	0.075688
	C3013	C	0.500534	0.914353	0.079625
	C3014	C	0.488900	0.913299	0.073414
	C3015	C	0.487380	0.904607	0.063509
	C3016	C	0.502313	0.924325	0.089549
	C3017	C	0.493046	0.927104	0.099150
	C3018	C	0.494446	0.936949	0.107911
	C3019	C	0.505137	0.944584	0.107390
	C3020	C	0.514519	0.941700	0.097950
	C3021	C	0.513167	0.931760	0.089306
	H3022	H	0.487106	0.938981	0.115143
	H3023	H	0.478394	0.904217	0.058686
	H3024	H	0.522850	0.947467	0.097339
	H3025	H	0.516759	0.890893	0.062936
	H3026	H	0.484691	0.921370	0.099740
	H3027	H	0.481113	0.919731	0.076137
	H3028	H	0.519462	0.906387	0.080481
	H3029	H	0.520407	0.929945	0.081914
	N3030	N	0.504586	0.879716	0.044919
	C3031	C	0.495891	0.887795	0.048458
	H3032	H	0.486953	0.888699	0.043257
	N3033	N	0.498223	0.958158	0.125047
	C3034	C	0.506322	0.955588	0.115954
	H3035	H	0.514391	0.961724	0.114031
	C3036	C	0.102351	0.699033	0.063295
	C3037	C	0.099321	0.710975	0.068659
	C3038	C	0.089785	0.712519	0.078066
	C3039	C	0.082855	0.702222	0.082614
	C3040	C	0.086085	0.690259	0.077338
	C3041	C	0.095560	0.688692	0.067911
	C3042	C	0.072294	0.703784	0.092315
	C3043	C	0.070039	0.694595	0.101749
	C3044	C	0.059737	0.695670	0.110319
	C3045	C	0.051142	0.706010	0.109867
	C3046	C	0.053502	0.715358	0.100654
	C3047	C	0.063836	0.714277	0.092126
	H3048	H	0.058172	0.688378	0.117406
	H3049	H	0.097716	0.679353	0.063968
	H3050	H	0.046996	0.723431	0.100093
	H3051	H	0.104527	0.719074	0.065318
	H3052	H	0.076562	0.686551	0.102432
	H3053	H	0.080814	0.682128	0.080448
	H3054	H	0.087768	0.721842	0.082115
	H3055	H	0.065180	0.721480	0.084897
	N3056	N	0.118542	0.706306	0.048491
	C3057	C	0.112045	0.697201	0.053034
	H3058	H	0.113488	0.687498	0.049324
	N3059	N	0.037213	0.698298	0.126553
	C3060	C	0.039777	0.706887	0.118319
	H3061	H	0.033475	0.715202	0.117050
	C3062	C	0.898304	0.705984	0.040010
	C3063	C	0.903188	0.694137	0.043769
	C3064	C	0.911959	0.693068	0.053518
	C3065	C	0.916334	0.703755	0.060021
	C3066	C	0.911238	0.715580	0.056372
	C3067	C	0.902454	0.716682	0.046610
	C3068	C	0.926063	0.702489	0.070163
	C3069	C	0.926008	0.710390	0.081101
	C3070	C	0.935173	0.709062	0.090483
	C3071	C	0.944874	0.699755	0.089357
	C3072	C	0.944999	0.691866	0.078433
	C3073	C	0.935840	0.693213	0.069101
	H3074	H	0.934882	0.715233	0.098863
	H3075	H	0.898762	0.725938	0.043951
	H3076	H	0.952419	0.684639	0.077270
	H3077	H	0.900003	0.685713	0.038958
	H3078	H	0.918510	0.717518	0.082391
	H3079	H	0.914452	0.724050	0.061073
	H3080	H	0.915327	0.683745	0.056326
	H3081	H	0.936414	0.687142	0.060662
	N3082	N	0.885973	0.697441	0.023061
	C3083	C	0.889294	0.707168	0.029445
	H3084	H	0.885964	0.716783	0.027118
	N3085	N	0.955282	0.705101	0.109133
	C3086	C	0.954665	0.698058	0.099075
	H3087	H	0.961677	0.690335	0.097249
	C3088	C	0.512139	0.861872	0.008544
	C3089	C	0.486285	0.861653	-0.013219
	H3090	H	0.477705	0.867640	-0.012672
	H3091	H	0.485556	0.855557	-0.021670
	C3092	C	0.499811	0.870050	0.010173
	C3093	C	0.511744	0.853547	-0.003822
	C3094	C	0.497836	0.870313	-0.014488
	C3095	C	0.487460	0.853058	-0.001190
	C3096	C	0.488266	0.861357	0.011139
	C3097	C	0.510163	0.862096	-0.015795
	C3098	C	0.498442	0.878424	-0.001989
	C3099	C	0.499987	0.844961	-0.002677
	H3100	H	0.489001	0.855172	0.019478
	H3101	H	0.518115	0.868398	-0.017016
	H3102	H	0.489873	0.884449	-0.001025
	H3103	H	0.499574	0.838858	-0.011180
	H3104	H	0.479742	0.867305	0.012607
	H3105	H	0.510006	0.856086	-0.024373
	H3106	H	0.506432	0.884792	-0.002697
	H3107	H	0.500968	0.838682	0.005574
	H3108	H	0.520159	0.868177	0.008253
	H3109	H	0.513446	0.855585	0.016717
	C3110	C	0.500288	0.878753	0.022217
	O3111	O	0.498369	0.890057	0.021330
	N3112	N	0.502931	0.872920	0.033927
	H3113	H	0.504700	0.863430	0.034284
	C3114	C	0.524250	0.845480	-0.005155
	O3115	O	0.524370	0.834052	-0.005337
	N3116	N	0.535194	0.852580	-0.005975
	H3117	H	0.534176	0.862161	-0.006197
	C3118	C	0.496605	0.879260	-0.026182
	O3119	O	0.496963	0.890625	-0.024764
	N3120	N	0.495263	0.873562	-0.038236
	H3121	H	0.494397	0.864033	-0.039006
	C3122	C	0.475734	0.844490	-0.000188
	O3123	O	0.476695	0.833079	-0.000377
	N3124	N	0.464129	0.851108	0.000771
	H3125	H	0.464220	0.860703	0.001388
	C3126	C	0.487818	0.145559	0.006695
	C3127	C	0.515042	0.147305	-0.014295
	H3128	H	0.523969	0.141934	-0.013334
	H3129	H	0.516137	0.153420	-0.022638
	C3130	C	0.500414	0.137945	0.008380
	C3131	C	0.488616	0.154106	-0.005393
	C3132	C	0.504056	0.138122	-0.016143
	C3133	C	0.512583	0.155837	-0.002161
	C3134	C	0.511419	0.147226	0.009833
	C3135	C	0.491442	0.145800	-0.017544
	C3136	C	0.502988	0.129795	-0.003931
	C3137	C	0.499812	0.163291	-0.003749
	H3138	H	0.509563	0.152991	0.018438
	H3139	H	0.483900	0.139147	-0.019155
	H3140	H	0.511770	0.124173	-0.002935
	H3141	H	0.500463	0.169431	-0.012151
	H3142	H	0.520217	0.141694	0.011033
	H3143	H	0.491936	0.151914	-0.025959
	H3144	H	0.495386	0.123056	-0.005019
	H3145	H	0.497961	0.169472	0.004580
	H3146	H	0.480164	0.138865	0.005971
	H3147	H	0.485623	0.151634	0.015015
	C3148	C	0.499608	0.129046	0.020177
	O3149	O	0.502147	0.117851	0.019053
	N3150	N	0.495952	0.134612	0.031982
	H3151	H	0.493424	0.143947	0.032501
	C3152	C	0.475864	0.161635	-0.006781
	O3153	O	0.475292	0.173067	-0.006521
	N3154	N	0.465263	0.154150	-0.008045
	H3155	H	0.466640	0.144612	-0.008697
	C3156	C	0.506388	0.129386	-0.028052
	O3157	O	0.505989	0.117994	-0.027019
	N3158	N	0.508533	0.135255	-0.039887
	H3159	H	0.509654	0.144765	-0.040332
	C3160	C	0.523827	0.165069	-0.001461
	O3161	O	0.526035	0.171999	-0.010427
	N3162	N	0.531158	0.164610	0.009570
	H3163	H	0.527496	0.160907	0.017803
	C3164	C	0.853819	0.693976	-0.001731
	C3165	C	0.848592	0.721129	-0.021385
	H3166	H	0.852436	0.730517	-0.020082
	H3167	H	0.842966	0.721474	-0.030095
	C3168	C	0.859358	0.707171	0.000873
	C3169	C	0.845651	0.694222	-0.014004
	C3170	C	0.859826	0.711424	-0.023288
	C3171	C	0.840015	0.717496	-0.009740
	C3172	C	0.848105	0.716912	0.002526
	C3173	C	0.854213	0.698251	-0.025591
	C3174	C	0.867696	0.711138	-0.010842
	C3175	C	0.834684	0.704102	-0.012256
	H3176	H	0.842100	0.714328	0.010758
	H3177	H	0.861626	0.690972	-0.027031
	H3178	H	0.871417	0.720537	-0.009077
	H3179	H	0.828944	0.704325	-0.020889
	H3180	H	0.851902	0.726161	0.004733
	H3181	H	0.848625	0.698475	-0.034338
	H3182	H	0.875838	0.704663	-0.012146
	H3183	H	0.828409	0.701605	-0.004232
	H3184	H	0.861343	0.686774	-0.003035
	H3185	H	0.848105	0.691302	0.006655
	C3186	C	0.867229	0.707051	0.013325
	O3187	O	0.864241	0.713855	0.022361
	N3188	N	0.877723	0.698693	0.013297
	H3189	H	0.879253	0.692656	0.005727
	C3190	C	0.840833	0.680802	-0.016877
	O3191	O	0.843536	0.675572	-0.027032
	N3192	N	0.834083	0.674755	-0.007089
	H3193	H	0.830834	0.679827	0.000708
	C3194	C	0.868339	0.715424	-0.034890
	O3195	O	0.867088	0.725746	-0.039737
	N3196	N	0.877435	0.706448	-0.039179
	H3197	H	0.878156	0.698061	-0.034515
	C3198	C	0.828837	0.727241	-0.007855
	O3199	O	0.817949	0.723882	-0.007859
	N3200	N	0.832305	0.739786	-0.006048
	H3201	H	0.841675	0.741771	-0.005482
	C3202	C	0.150763	0.690420	0.000968
	C3203	C	0.155344	0.717495	0.020920
	H3204	H	0.151224	0.726979	0.019756
	H3205	H	0.161014	0.717717	0.029598
	C3206	C	0.144835	0.703753	-0.001441
	C3207	C	0.159001	0.690488	0.013191
	C3208	C	0.144388	0.708071	0.022772
	C3209	C	0.163958	0.713619	0.009178
	C3210	C	0.155807	0.713211	-0.003042
	C3211	C	0.150389	0.694756	0.024879
	C3212	C	0.136450	0.707955	0.010371
	C3213	C	0.169683	0.700092	0.011497
	H3214	H	0.161840	0.710460	-0.011342
	H3215	H	0.143188	0.687663	0.026277
	H3216	H	0.132451	0.717446	0.008744
	H3217	H	0.175472	0.700189	0.020094
	H3218	H	0.151738	0.722556	-0.005109
	H3219	H	0.156025	0.694860	0.033593
	H3220	H	0.128494	0.701683	0.011642
	H3221	H	0.175982	0.697420	0.003403
	H3222	H	0.143446	0.683407	0.002229
	H3223	H	0.156507	0.687582	-0.007485
	C3224	C	0.136900	0.703806	-0.013849
	O3225	O	0.139650	0.710525	-0.022812
	N3226	N	0.126639	0.695705	-0.013879
	H3227	H	0.125307	0.689721	-0.006377
	C3228	C	0.164218	0.676949	0.015863
	O3229	O	0.161700	0.671788	0.025955
	N3230	N	0.171114	0.670732	0.005967
	H3231	H	0.174191	0.675724	-0.001770
	C3232	C	0.135819	0.712303	0.034472
	O3233	O	0.136810	0.722599	0.039454
	N3234	N	0.126987	0.703559	0.038679
	H3235	H	0.126483	0.695184	0.033903
	C3236	C	0.174861	0.723069	0.007315
	O3237	O	0.185843	0.719417	0.007174
	N3238	N	0.171039	0.735706	0.005687
	H3239	H	0.161602	0.737941	0.005286
