data_Molecule from CHK

_cell_length_a		91.211700
_cell_length_b		92.147757
_cell_length_c		147.677481
_cell_angle_alpha	90.313095
_cell_angle_beta	90.288100
_cell_angle_gamma	89.322317
_symmetry_space_group_name_H-M	'P 1'
_symmetry_Int_Tables_number		1

loop_
	_symmetry_equiv_pos_as_xyz
	x,y,z

loop_
	_atom_site_label
	_atom_site_type_symbol
	_atom_site_fract_x
	_atom_site_fract_y
	_atom_site_fract_z
	C0	C	0.290057	0.432662	0.703399
	C1	C	0.280275	0.432344	0.696018
	C2	C	0.282595	0.422978	0.688732
	C3	C	0.294818	0.413583	0.688539
	C4	C	0.304593	0.413845	0.695909
	C5	C	0.302241	0.423181	0.703198
	C6	C	0.297413	0.403588	0.680733
	N7	N	0.305063	0.391304	0.682224
	C8	C	0.307328	0.382641	0.675018
	N9	N	0.302387	0.385597	0.666651
	C10	C	0.294754	0.398054	0.665744
	N11	N	0.292059	0.407344	0.672590
	C12	C	0.315984	0.369100	0.676510
	C13	C	0.330268	0.367622	0.673126
	C14	C	0.338604	0.355217	0.674899
	C15	C	0.332980	0.343868	0.680125
	C16	C	0.318577	0.345342	0.683383
	C17	C	0.310224	0.357735	0.681617
	C18	C	0.288958	0.401954	0.656639
	C19	C	0.274142	0.405797	0.655472
	C20	C	0.268760	0.409829	0.647019
	C21	C	0.277971	0.410161	0.639419
	C22	C	0.292775	0.406145	0.640607
	C23	C	0.298180	0.402130	0.649067
	H24	H	0.275060	0.422792	0.683052
	H25	H	0.270796	0.439543	0.696073
	H26	H	0.309862	0.423202	0.708851
	H27	H	0.313981	0.406554	0.695789
	H28	H	0.334599	0.376433	0.669181
	H29	H	0.349687	0.354253	0.672336
	H30	H	0.314066	0.336700	0.687418
	H31	H	0.299216	0.358996	0.684222
	H32	H	0.267080	0.405652	0.661334
	H33	H	0.257300	0.412852	0.646215
	H34	H	0.300037	0.406265	0.634827
	H35	H	0.309566	0.399059	0.650023
	N36	N	0.277059	0.451644	0.711336
	C37	C	0.287824	0.442580	0.711131
	H38	H	0.296116	0.442000	0.716530
	N39	N	0.337209	0.320787	0.687172
	C40	C	0.342140	0.331065	0.682288
	H41	H	0.353234	0.330943	0.679470
	N42	N	0.258964	0.418838	0.629482
	C43	C	0.272353	0.414761	0.630510
	H44	H	0.280157	0.414813	0.624876
	C45	C	0.279166	0.470442	0.733745
	C46	C	0.283388	0.484283	0.730999
	C47	C	0.283084	0.495895	0.737089
	C48	C	0.278672	0.494136	0.746120
	C49	C	0.274618	0.480134	0.748784
	C50	C	0.274954	0.468466	0.742738
	C51	C	0.278658	0.506586	0.752648
	C52	C	0.282771	0.504689	0.761755
	C53	C	0.283053	0.516302	0.767841
	C54	C	0.279155	0.530298	0.765004
	C55	C	0.275031	0.532367	0.755970
	C56	C	0.274751	0.520703	0.749923
	H57	H	0.286670	0.514584	0.774755
	H58	H	0.271866	0.457696	0.744891
	H59	H	0.272032	0.543220	0.753775
	H60	H	0.287313	0.485850	0.724166
	H61	H	0.286181	0.494011	0.764045
	H62	H	0.271028	0.478349	0.755667
	H63	H	0.286711	0.506449	0.734872
	H64	H	0.271303	0.522580	0.742992
	C65	C	0.279892	0.457598	0.727402
	O66	O	0.283192	0.445551	0.730049
	N67	N	0.275208	0.460579	0.718563
	H68	H	0.269183	0.469775	0.717398
	C69	C	0.279471	0.543108	0.771382
	O70	O	0.283124	0.555037	0.768871
	N71	N	0.275020	0.540056	0.780213
	H72	H	0.268798	0.531117	0.781293
	C73	C	0.367214	0.297432	0.696608
	C74	C	0.359692	0.290699	0.703644
	C75	C	0.366064	0.279075	0.708281
	C76	C	0.380187	0.273870	0.706166
	C77	C	0.387661	0.280850	0.699162
	C78	C	0.381344	0.292478	0.694498
	C79	C	0.387093	0.261732	0.711388
	C80	C	0.401967	0.262043	0.713901
	C81	C	0.408376	0.251002	0.719045
	C82	C	0.400107	0.239100	0.721759
	C83	C	0.385309	0.238610	0.719270
	C84	C	0.378945	0.249720	0.714166
	H85	H	0.419710	0.251854	0.721183
	H86	H	0.387268	0.297844	0.689146
	H87	H	0.378884	0.229425	0.721409
	H88	H	0.349061	0.294868	0.705703
	H89	H	0.408443	0.271367	0.712087
	H90	H	0.398542	0.277079	0.697311
	H91	H	0.360189	0.274207	0.713834
	H92	H	0.367490	0.249022	0.712252
	C93	C	0.360924	0.310485	0.691773
	O94	O	0.368706	0.320301	0.689361
	N95	N	0.345950	0.309556	0.689727
	H96	H	0.340538	0.300290	0.691283
	C97	C	0.406564	0.227046	0.727440
	O98	O	0.399521	0.221459	0.733398
	N99	N	0.420927	0.222981	0.725163
	H100	H	0.425780	0.227680	0.719734
	C101	C	0.236499	0.434658	0.610893
	C102	C	0.246168	0.444244	0.606765
	C103	C	0.242590	0.450575	0.598478
	C104	C	0.229242	0.447711	0.594059
	C105	C	0.219579	0.438222	0.598355
	C106	C	0.223080	0.431878	0.606648
	C107	C	0.225370	0.454760	0.585267
	C108	C	0.211017	0.459674	0.583442
	C109	C	0.207380	0.466504	0.575320
	C110	C	0.218046	0.468600	0.568687
	C111	C	0.232385	0.463808	0.570416
	C112	C	0.235953	0.457000	0.578554
	H113	H	0.196320	0.470551	0.574223
	H114	H	0.215498	0.424628	0.609923
	H115	H	0.240659	0.465471	0.565289
	H116	H	0.256269	0.447102	0.610184
	H117	H	0.202666	0.458448	0.588569
	H118	H	0.209218	0.435678	0.595134
	H119	H	0.250086	0.458206	0.595486
	H120	H	0.247103	0.453215	0.579671
	C121	C	0.239782	0.428039	0.619993
	O122	O	0.230262	0.425977	0.625533
	N123	N	0.254308	0.423406	0.621235
	H124	H	0.261293	0.423514	0.615890
	C125	C	0.214536	0.475950	0.559829
	O126	O	0.223408	0.483493	0.556054
	N127	N	0.200537	0.473079	0.556397
	H128	H	0.195194	0.464149	0.558653
	C129	C	0.278419	0.590612	0.859513
	C130	C	0.269200	0.590805	0.851854
	C131	C	0.274506	0.594600	0.843395
	C132	C	0.289253	0.598329	0.842279
	C133	C	0.298487	0.598264	0.849906
	C134	C	0.293158	0.594486	0.858372
	C135	C	0.294971	0.602035	0.833180
	N136	N	0.292207	0.592790	0.826337
	C137	C	0.297502	0.596392	0.818206
	N138	N	0.305159	0.608482	0.816723
	C139	C	0.307496	0.617110	0.823925
	N140	N	0.302615	0.614300	0.832279
	C141	C	0.294850	0.586444	0.810401
	C142	C	0.304765	0.585695	0.803169
	C143	C	0.302363	0.576414	0.795874
	C144	C	0.289987	0.567475	0.795528
	C145	C	0.280067	0.568279	0.802771
	C146	C	0.282437	0.577593	0.810064
	C147	C	0.316153	0.630436	0.822447
	C148	C	0.310530	0.641753	0.817097
	C149	C	0.318884	0.653942	0.815362
	C150	C	0.333152	0.655255	0.818899
	C151	C	0.338642	0.643954	0.824358
	C152	C	0.330303	0.631753	0.826100
	H153	H	0.267435	0.594651	0.837491
	H154	H	0.257793	0.587873	0.852620
	H155	H	0.300429	0.594456	0.864194
	H156	H	0.309820	0.601240	0.848989
	H157	H	0.314299	0.592571	0.803403
	H158	H	0.310093	0.576016	0.790327
	H159	H	0.270442	0.561499	0.802601
	H160	H	0.274799	0.578159	0.815640
	H161	H	0.299629	0.640614	0.814282
	H162	H	0.314482	0.662545	0.811139
	H163	H	0.349624	0.644793	0.827132
	H164	H	0.334532	0.622981	0.830231
	N165	N	0.259559	0.582357	0.869436
	C166	C	0.272886	0.586290	0.868437
	H167	H	0.280698	0.586331	0.874115
	N168	N	0.276813	0.548961	0.787455
	C169	C	0.287707	0.557616	0.787785
	H170	H	0.296151	0.557754	0.782518
	N171	N	0.337493	0.678087	0.811720
	C172	C	0.342323	0.667829	0.816778
	H173	H	0.353286	0.667872	0.819852
	C174	C	0.433877	0.194331	0.740345
	C175	C	0.448970	0.196916	0.741295
	C176	C	0.457699	0.188403	0.746956
	C177	C	0.451638	0.176974	0.751873
	C178	C	0.436609	0.174258	0.750898
	C179	C	0.427897	0.182786	0.745237
	C180	C	0.460857	0.168142	0.758136
	N181	N	0.460908	0.153657	0.757156
	C182	C	0.469226	0.146175	0.763071
	N183	N	0.477211	0.152358	0.769671
	C184	C	0.476564	0.166894	0.770174
	N185	N	0.468548	0.175180	0.764529
	C186	C	0.469534	0.130084	0.762346
	C187	C	0.465440	0.121519	0.769718
	C188	C	0.465738	0.106462	0.769078
	C189	C	0.470151	0.099411	0.761056
	C190	C	0.474255	0.108060	0.753696
	C191	C	0.473949	0.123127	0.754321
	C192	C	0.485078	0.174241	0.777451
	C193	C	0.499531	0.169935	0.779469
	C194	C	0.507391	0.176760	0.786338
	C195	C	0.501107	0.188137	0.791440
	C196	C	0.486646	0.192448	0.789354
	C197	C	0.478773	0.185631	0.782496
	H198	H	0.469279	0.190480	0.747783
	H199	H	0.453752	0.205795	0.737596
	H200	H	0.416278	0.180651	0.744596
	H201	H	0.432031	0.165392	0.754689
	H202	H	0.462143	0.126974	0.775900
	H203	H	0.462619	0.099968	0.774837
	H204	H	0.477696	0.102799	0.747468
	H205	H	0.477042	0.129816	0.748661
	H206	H	0.504327	0.161123	0.775573
	H207	H	0.518534	0.173318	0.787842
	H208	H	0.481648	0.201261	0.793176
	H209	H	0.467660	0.188976	0.780872
	N210	N	0.429753	0.214053	0.730051
	C211	C	0.424443	0.203542	0.734577
	H212	H	0.412820	0.200665	0.734296
	N213	N	0.474472	0.076806	0.753275
	C214	C	0.470397	0.083450	0.760496
	H215	H	0.466508	0.077737	0.766505
	N216	N	0.522324	0.191485	0.800916
	C217	C	0.509205	0.195350	0.798811
	H218	H	0.503179	0.203872	0.802499
	C219	C	0.198344	0.564041	0.487861
	C220	C	0.195845	0.549182	0.486394
	C221	C	0.187004	0.541336	0.492196
	C222	C	0.180317	0.548104	0.499663
	C223	C	0.182624	0.562959	0.501112
	C224	C	0.191487	0.570776	0.495314
	C225	C	0.171180	0.539698	0.506014
	N226	N	0.156576	0.540033	0.504901
	C227	C	0.148816	0.532402	0.510885
	N228	N	0.154859	0.524715	0.517669
	C229	C	0.169534	0.524948	0.518294
	N230	N	0.178097	0.532293	0.512603
	C231	C	0.132575	0.532498	0.510024
	C232	C	0.123762	0.536791	0.517345
	C233	C	0.108564	0.536801	0.516595
	C234	C	0.101611	0.532514	0.508509
	C235	C	0.110506	0.528230	0.501195
	C236	C	0.125715	0.528227	0.501931
	C237	C	0.176697	0.516716	0.525769
	C238	C	0.172949	0.502276	0.527502
	C239	C	0.179591	0.494654	0.534548
	C240	C	0.190209	0.501179	0.540119
	C241	C	0.193957	0.515636	0.538322
	C242	C	0.187331	0.523268	0.531281
	H243	H	0.185151	0.529879	0.491137
	H244	H	0.201006	0.543841	0.480664
	H245	H	0.193211	0.582246	0.496510
	H246	H	0.177356	0.568088	0.506863
	H247	H	0.129139	0.539981	0.523580
	H248	H	0.101881	0.540060	0.522320
	H249	H	0.105323	0.524889	0.494917
	H250	H	0.132590	0.524988	0.496307
	H251	H	0.164710	0.497303	0.523243
	H252	H	0.176589	0.483513	0.535829
	H253	H	0.202191	0.520812	0.542510
	H254	H	0.190247	0.534372	0.529865
	N255	N	0.214424	0.566445	0.475135
	C256	C	0.208041	0.572387	0.481942
	H257	H	0.209775	0.583724	0.483928
	N258	N	0.078928	0.528449	0.500596
	C259	C	0.085496	0.532514	0.507852
	H260	H	0.079589	0.536419	0.513858
	N261	N	0.193926	0.480151	0.549448
	C262	C	0.197213	0.493312	0.547671
	H263	H	0.205030	0.499520	0.551768
	C264	C	0.367672	0.700893	0.802831
	C265	C	0.360423	0.707616	0.795575
	C266	C	0.366857	0.719148	0.791066
	C267	C	0.380775	0.724267	0.793536
	C268	C	0.387986	0.717285	0.800754
	C269	C	0.381608	0.705749	0.805291
	C270	C	0.387749	0.736330	0.788471
	C271	C	0.402741	0.735884	0.786325
	C272	C	0.409238	0.746868	0.781341
	C273	C	0.400916	0.758809	0.778383
	C274	C	0.385986	0.759403	0.780475
	C275	C	0.379545	0.748366	0.785438
	H276	H	0.420694	0.745932	0.779511
	H277	H	0.387326	0.700384	0.810815
	H278	H	0.379521	0.768614	0.778144
	H279	H	0.349971	0.703511	0.793256
	H280	H	0.409293	0.726566	0.788373
	H281	H	0.398704	0.720990	0.802877
	H282	H	0.361202	0.724012	0.785344
	H283	H	0.367985	0.749152	0.787047
	C284	C	0.361299	0.687969	0.807564
	O285	O	0.369059	0.678065	0.810187
	N286	N	0.346234	0.689137	0.809263
	H287	H	0.340805	0.698452	0.807525
	C288	C	0.407457	0.770810	0.772861
	O289	O	0.400628	0.776437	0.766722
	N290	N	0.421632	0.774784	0.775492
	H291	H	0.426331	0.770022	0.781016
	C292	C	0.237353	0.567365	0.888109
	C293	C	0.247172	0.557865	0.892441
	C294	C	0.243696	0.551894	0.900804
	C295	C	0.230305	0.555042	0.905098
	C296	C	0.220496	0.564441	0.900599
	C297	C	0.223895	0.570427	0.892231
	C298	C	0.226534	0.548366	0.913969
	C299	C	0.212254	0.543632	0.915765
	C300	C	0.208706	0.537142	0.923960
	C301	C	0.219388	0.535222	0.930700
	C302	C	0.233656	0.539837	0.929002
	C303	C	0.237136	0.546304	0.920789
	H304	H	0.197707	0.533218	0.925037
	H305	H	0.216201	0.577610	0.888800
	H306	H	0.241943	0.538305	0.934213
	H307	H	0.257315	0.554789	0.889125
	H308	H	0.203898	0.544721	0.910560
	H309	H	0.210098	0.567200	0.903720
	H310	H	0.251311	0.544324	0.903958
	H311	H	0.248231	0.549959	0.919693
	C312	C	0.240534	0.573602	0.878929
	O313	O	0.230981	0.575521	0.873299
	N314	N	0.254986	0.578076	0.877711
	H315	H	0.261972	0.578109	0.883100
	C316	C	0.215959	0.528224	0.939634
	O317	O	0.224943	0.520778	0.943597
	N318	N	0.201885	0.531295	0.942904
	H319	H	0.196426	0.540212	0.940511
	C320	C	0.534130	0.216274	0.819587
	C321	C	0.535165	0.206306	0.826687
	C322	C	0.541539	0.210270	0.834923
	C323	C	0.546973	0.224295	0.836414
	C324	C	0.545686	0.234218	0.829257
	C325	C	0.539302	0.230330	0.821011
	C326	C	0.553498	0.228540	0.845327
	C327	C	0.550836	0.242332	0.849129
	C328	C	0.556611	0.246258	0.857539
	C329	C	0.565365	0.236467	0.862439
	C330	C	0.568087	0.222696	0.858755
	C331	C	0.562273	0.218835	0.850346
	H332	H	0.553971	0.256787	0.860432
	H333	H	0.538323	0.238112	0.815552
	H334	H	0.574814	0.215098	0.862580
	H335	H	0.530589	0.195584	0.825853
	H336	H	0.543794	0.249945	0.845545
	H337	H	0.549843	0.245106	0.830125
	H338	H	0.541959	0.202481	0.840394
	H339	H	0.564703	0.208156	0.847593
	C340	C	0.526827	0.212483	0.810721
	O341	O	0.520129	0.221493	0.806338
	N342	N	0.529573	0.198290	0.807711
	H343	H	0.538183	0.192638	0.810435
	C344	C	0.571712	0.240283	0.871570
	O345	O	0.572611	0.231500	0.877644
	N346	N	0.576585	0.254555	0.872434
	H347	H	0.577418	0.260773	0.866795
	C348	C	0.474415	0.037028	0.758127
	C349	C	0.463539	0.032343	0.752102
	C350	C	0.461749	0.017587	0.750336
	C351	C	0.470609	0.006998	0.754550
	C352	C	0.481290	0.011875	0.760703
	C353	C	0.483118	0.026606	0.762508
	C354	C	0.468613	-0.008800	0.752660
	C355	C	0.469881	-0.019165	0.759575
	C356	C	0.467979	-0.033918	0.757856
	C357	C	0.464785	-0.038824	0.749087
	C358	C	0.463342	-0.028630	0.742154
	C359	C	0.465245	-0.013896	0.743919
	H360	H	0.468601	-0.041609	0.763368
	H361	H	0.491400	0.030227	0.767279
	H362	H	0.460764	-0.032436	0.735375
	H363	H	0.456225	0.040229	0.748989
	H364	H	0.472054	-0.015555	0.766445
	H365	H	0.488388	0.004044	0.764051
	H366	H	0.453093	0.014167	0.745773
	H367	H	0.464297	-0.006245	0.738396
	C368	C	0.476474	0.052866	0.760331
	O369	O	0.480380	0.056845	0.767795
	N370	N	0.474833	0.062126	0.752905
	H371	H	0.474968	0.057757	0.746548
	C372	C	0.462865	-0.054689	0.746906
	O373	O	0.453200	-0.058754	0.741866
	N374	N	0.473150	-0.063909	0.751067
	H375	H	0.480990	-0.059578	0.755173
	C376	C	0.038685	0.528412	0.505328
	C377	C	0.033638	0.539123	0.499353
	C378	C	0.018685	0.540753	0.497561
	C379	C	0.008251	0.531895	0.501700
	C380	C	0.013486	0.521378	0.507803
	C381	C	0.028413	0.519708	0.509633
	C382	C	-0.007761	0.533709	0.499786
	C383	C	-0.018229	0.532363	0.506674
	C384	C	-0.033189	0.534031	0.504926
	C385	C	-0.038205	0.537041	0.496156
	C386	C	-0.027919	0.538542	0.489248
	C387	C	-0.012977	0.536879	0.491042
	H388	H	-0.040975	0.533352	0.510417
	H389	H	0.032307	0.511550	0.514363
	H390	H	-0.031814	0.540964	0.482466
	H391	H	0.041385	0.546427	0.496300
	H392	H	-0.014547	0.530317	0.513544
	H393	H	0.005786	0.514285	0.511090
	H394	H	0.014973	0.549276	0.493037
	H395	H	-0.005245	0.537866	0.485539
	C396	C	0.054731	0.526501	0.507564
	O397	O	0.058807	0.522680	0.515018
	N398	N	0.064104	0.528182	0.500178
	H399	H	0.059749	0.528059	0.493807
	C400	C	-0.054299	0.538688	0.493970
	O401	O	-0.058716	0.547839	0.488724
	N402	N	-0.063133	0.528102	0.497868
	H403	H	-0.058463	0.520588	0.502054
	C404	C	0.237592	0.595076	0.464966
	C405	C	0.251339	0.588722	0.466672
	C406	C	0.263964	0.594572	0.462952
	C407	C	0.263387	0.607016	0.457497
	C408	C	0.249537	0.613385	0.455954
	C409	C	0.236867	0.607583	0.459656
	C410	C	0.277049	0.613368	0.453741
	C411	C	0.279082	0.628454	0.453489
	C412	C	0.292031	0.634420	0.450286
	C413	C	0.303378	0.625429	0.447095
	C414	C	0.301460	0.610399	0.447243
	C415	C	0.288520	0.604501	0.450492
	H416	H	0.293494	0.646059	0.450521
	H417	H	0.226242	0.612629	0.458439
	H418	H	0.310267	0.603430	0.444796
	H419	H	0.252210	0.579453	0.471131
	H420	H	0.270598	0.635573	0.456176
	H421	H	0.248655	0.622948	0.451741
	H422	H	0.274531	0.589656	0.464503
	H423	H	0.287260	0.592823	0.450450
	C424	C	0.223835	0.589277	0.469174
	O425	O	0.213569	0.597172	0.471097
	N426	N	0.223543	0.574145	0.469851
	H427	H	0.230483	0.568107	0.465917
	C428	C	0.317660	0.631368	0.443730
	O429	O	0.329234	0.625014	0.444931
	N430	N	0.316598	0.644560	0.439119
	H431	H	0.306575	0.648355	0.437146
	C432	C	0.434552	0.803766	0.760858
	C433	C	0.449716	0.801115	0.760141
	C434	C	0.458463	0.809765	0.754751
	C435	C	0.452350	0.821402	0.749882
	C436	C	0.437246	0.824178	0.750622
	C437	C	0.428515	0.815512	0.756011
	C438	C	0.461597	0.830413	0.743916
	N439	N	0.461331	0.844860	0.745101
	C440	C	0.469673	0.852529	0.739447
	N441	N	0.477995	0.846564	0.732911
	C442	C	0.477651	0.832049	0.732193
	N443	N	0.469630	0.823583	0.737569
	C444	C	0.469612	0.868588	0.740415
	C445	C	0.464993	0.877442	0.733224
	C446	C	0.464897	0.892471	0.734111
	C447	C	0.469427	0.899198	0.742207
	C448	C	0.474025	0.890257	0.749392
	C449	C	0.474116	0.875220	0.748519
	C450	C	0.486532	0.824924	0.724974
	C451	C	0.501081	0.828982	0.723427
	C452	C	0.509291	0.822342	0.716622
	C453	C	0.503272	0.811407	0.711120
	C454	C	0.488707	0.807348	0.712732
	C455	C	0.480486	0.813979	0.719526
	H456	H	0.470103	0.807643	0.754104
	H457	H	0.454542	0.792079	0.763807
	H458	H	0.416843	0.817704	0.756475
	H459	H	0.432627	0.833207	0.746873
	H460	H	0.461565	0.872232	0.726994
	H461	H	0.461268	0.899194	0.728514
	H462	H	0.477477	0.895265	0.755693
	H463	H	0.477564	0.868305	0.754050
	H464	H	0.505671	0.837452	0.727636
	H465	H	0.520510	0.825581	0.715483
	H466	H	0.483907	0.798872	0.708597
	H467	H	0.469295	0.810822	0.720792
	N468	N	0.430467	0.783777	0.770861
	C469	C	0.425110	0.794438	0.766345
	H470	H	0.413425	0.797365	0.766445
	N471	N	0.473650	0.921455	0.750293
	C472	C	0.469266	0.915133	0.743039
	H473	H	0.465568	0.921121	0.737035
	N474	N	0.524991	0.807983	0.702159
	C475	C	0.511750	0.804378	0.703822
	H476	H	0.505907	0.796223	0.699796
	C477	C	0.199736	0.440772	1.011670
	C478	C	0.198817	0.455991	1.012266
	C479	C	0.189989	0.463930	1.006344
	C480	C	0.181728	0.456907	0.999628
	C481	C	0.182452	0.441716	0.999062
	C482	C	0.191309	0.433801	1.004975
	C483	C	0.172596	0.465369	0.993136
	N484	N	0.157975	0.465144	0.994040
	C485	C	0.150215	0.472825	0.987941
	N486	N	0.156274	0.480440	0.981231
	C487	C	0.170965	0.480086	0.980812
	N488	N	0.179529	0.472704	0.986637
	C489	C	0.133960	0.472845	0.988594
	C490	C	0.125315	0.469101	0.981071
	C491	C	0.110107	0.469135	0.981651
	C492	C	0.102977	0.472914	0.989764
	C493	C	0.111703	0.476679	0.997273
	C494	C	0.126920	0.476640	0.996707
	C495	C	0.178161	0.488206	0.973418
	C496	C	0.174222	0.502660	0.971576
	C497	C	0.180896	0.510162	0.964597
	C498	C	0.191735	0.503500	0.959204
	C499	C	0.195680	0.489034	0.961114
	C500	C	0.189023	0.481522	0.968088
	H501	H	0.189368	0.475647	1.006718
	H502	H	0.205206	0.461529	1.017402
	H503	H	0.191802	0.422068	1.004464
	H504	H	0.175961	0.436401	0.993899
	H505	H	0.130825	0.466282	0.974822
	H506	H	0.103552	0.466291	0.975778
	H507	H	0.106384	0.479636	1.003574
	H508	H	0.133663	0.479461	1.002486
	H509	H	0.165813	0.507736	0.975697
	H510	H	0.177745	0.521312	0.963229
	H511	H	0.204086	0.483754	0.957067
	H512	H	0.192086	0.470410	0.969589
	N513	N	0.217120	0.438448	1.023854
	C514	C	0.209413	0.432272	1.017701
	H515	H	0.209910	0.420563	1.016360
	N516	N	0.080155	0.476413	0.997572
	C517	C	0.086858	0.472881	0.990266
	H518	H	0.081090	0.469384	0.984111
	N519	N	0.195279	0.524381	0.949815
	C520	C	0.198758	0.511226	0.951712
	H521	H	0.206759	0.504910	0.947754
	C522	C	0.564715	0.296853	0.953407
	C523	C	0.571504	0.284792	0.949243
	C524	C	0.580881	0.286495	0.941936
	C525	C	0.583810	0.300344	0.938540
	C526	C	0.577061	0.312422	0.942657
	C527	C	0.567681	0.310698	0.949952
	C528	C	0.593967	0.302270	0.930814
	N529	N	0.606028	0.310167	0.932225
	C530	C	0.614917	0.311767	0.925095
	N531	N	0.612328	0.306020	0.916884
	C532	C	0.600032	0.298240	0.916052
	N533	N	0.590575	0.296097	0.922844
	C534	C	0.628308	0.320536	0.926482
	C535	C	0.629045	0.334774	0.923221
	C536	C	0.641338	0.343183	0.924896
	C537	C	0.653308	0.337673	0.929896
	C538	C	0.652572	0.323319	0.933029
	C539	C	0.640292	0.314897	0.931363
	C540	C	0.596552	0.291655	0.907092
	C541	C	0.597413	0.299826	0.899127
	C542	C	0.593843	0.293724	0.890778
	C543	C	0.589263	0.279240	0.890090
	C544	C	0.588532	0.271077	0.898087
	C545	C	0.592109	0.277160	0.906433
	H546	H	0.586111	0.277241	0.938710
	H547	H	0.569349	0.274052	0.951833
	H548	H	0.562620	0.320126	0.953117
	H549	H	0.579469	0.323068	0.940037
	H550	H	0.619755	0.339015	0.919456
	H551	H	0.641732	0.354228	0.922434
	H552	H	0.661697	0.318898	0.936892
	H553	H	0.639598	0.303922	0.933873
	H554	H	0.600933	0.310968	0.899690
	H555	H	0.594533	0.300186	0.884693
	H556	H	0.585034	0.259882	0.897676
	H557	H	0.591417	0.270909	0.912593
	N558	N	0.552216	0.282804	0.964596
	C559	C	0.554869	0.295265	0.961200
	H560	H	0.549845	0.305327	0.963787
	N561	N	0.676835	0.342015	0.936638
	C562	C	0.665999	0.346883	0.931967
	H563	H	0.665520	0.357936	0.929275
	N564	N	0.580682	0.259814	0.880645
	C565	C	0.585152	0.272921	0.881273
	H566	H	0.585823	0.279978	0.875328
	C567	C	0.801497	0.560363	0.510247
	C568	C	0.802611	0.545137	0.510490
	C569	C	0.811731	0.537582	0.504546
	C570	C	0.820103	0.545008	0.498160
	C571	C	0.819182	0.560207	0.497949
	C572	C	0.810030	0.567739	0.503883
	C573	C	0.829567	0.536953	0.491650
	N574	N	0.844154	0.537528	0.492750
	C575	C	0.852221	0.530195	0.486636
	N576	N	0.846494	0.522577	0.479726
	C577	C	0.831811	0.522563	0.479120
	N578	N	0.822955	0.529590	0.484944
	C579	C	0.868449	0.530565	0.487527
	C580	C	0.877126	0.535315	0.480334
	C581	C	0.892310	0.535660	0.481154
	C582	C	0.899380	0.531258	0.489182
	C583	C	0.890616	0.526538	0.496371
	C584	C	0.875426	0.526196	0.495566
	C585	C	0.824933	0.514406	0.471526
	C586	C	0.829163	0.500042	0.469575
	C587	C	0.822697	0.492477	0.462454
	C588	C	0.811781	0.498983	0.457026
	C589	C	0.807574	0.513371	0.459030
	C590	C	0.814021	0.520946	0.466144
	H591	H	0.812506	0.525862	0.504648
	H592	H	0.796145	0.539287	0.515370
	H593	H	0.809395	0.579483	0.503650
	H594	H	0.825766	0.565838	0.493045
	H595	H	0.871659	0.538639	0.474153
	H596	H	0.898891	0.539382	0.475555
	H597	H	0.895880	0.523186	0.502624
	H598	H	0.868650	0.522654	0.501104
	H599	H	0.837610	0.495080	0.473737
	H600	H	0.826051	0.481388	0.461012
	H601	H	0.799111	0.518536	0.454953
	H602	H	0.810735	0.531988	0.467728
	N603	N	0.783755	0.561912	0.522179
	C604	C	0.791528	0.568464	0.516307
	H605	H	0.790896	0.580218	0.515237
	N606	N	0.922100	0.527390	0.497142
	C607	C	0.915476	0.531664	0.489948
	H608	H	0.921323	0.535433	0.483949
	N609	N	0.808546	0.478056	0.447457
	C610	C	0.804885	0.491163	0.449430
	H611	H	0.796754	0.497353	0.445488
	C612	C	0.432892	0.711758	0.452513
	C613	C	0.425329	0.698687	0.451272
	C614	C	0.415154	0.697090	0.444307
	C615	C	0.412131	0.708527	0.438319
	C616	C	0.419651	0.721601	0.439525
	C617	C	0.429843	0.723175	0.446488
	C618	C	0.401255	0.706778	0.430858
	N619	N	0.404004	0.713040	0.422878
	C620	C	0.393953	0.711101	0.416325
	N621	N	0.381657	0.703447	0.417372
	C622	C	0.379743	0.697530	0.425559
	N623	N	0.389245	0.698957	0.432472
	C624	C	0.396751	0.717910	0.407419
	C625	C	0.392871	0.732463	0.405867
	C626	C	0.395981	0.738981	0.397637
	C627	C	0.403097	0.731207	0.390679
	C628	C	0.406810	0.716580	0.392253
	C629	C	0.403702	0.710039	0.400476
	C630	C	0.366394	0.688816	0.427164
	C631	C	0.352414	0.694097	0.424787
	C632	C	0.339961	0.686019	0.426544
	C633	C	0.341038	0.672394	0.430756
	C634	C	0.355092	0.667109	0.433037
	C635	C	0.367536	0.675154	0.431272
	H636	H	0.409326	0.687031	0.443374
	H637	H	0.427555	0.689759	0.455841
	H638	H	0.435632	0.733305	0.447308
	H639	H	0.417368	0.730364	0.434860
	H640	H	0.387546	0.738446	0.411271
	H641	H	0.393073	0.750275	0.396541
	H642	H	0.412290	0.710430	0.386962
	H643	H	0.406648	0.698825	0.401742
	H644	H	0.351648	0.704600	0.421568
	H645	H	0.329237	0.690260	0.424699
	H646	H	0.356131	0.656605	0.436273
	H647	H	0.378333	0.671128	0.433104
	N648	N	0.446393	0.703246	0.465457
	C649	C	0.443695	0.713537	0.459870
	H650	H	0.448941	0.724162	0.460349
	N651	N	0.413452	0.731500	0.375773
	C652	C	0.406764	0.738386	0.382108
	H653	H	0.403221	0.749747	0.381497
	N654	N	0.328924	0.651825	0.436980
	C655	C	0.327856	0.664009	0.432869
	H656	H	0.317196	0.668767	0.430976
	C657	C	0.537761	0.783760	0.683368
	C658	C	0.539252	0.794032	0.676496
	C659	C	0.546062	0.790270	0.668370
	C660	C	0.551493	0.776158	0.666763
	C661	C	0.549748	0.765936	0.673687
	C662	C	0.542931	0.769623	0.681821
	C663	C	0.558464	0.772142	0.657953
	C664	C	0.555873	0.758638	0.653812
	C665	C	0.562027	0.754954	0.645476
	C666	C	0.571115	0.764695	0.640999
	C667	C	0.573786	0.778176	0.645030
	C668	C	0.567586	0.781800	0.653362
	H669	H	0.559415	0.744673	0.642306
	H670	H	0.541599	0.761612	0.687098
	H671	H	0.580768	0.785743	0.641533
	H672	H	0.534691	0.804846	0.677404
	H673	H	0.548580	0.751085	0.657059
	H674	H	0.553882	0.754968	0.672724
	H675	H	0.546832	0.798302	0.663063
	H676	H	0.569967	0.792253	0.656388
	C677	C	0.529979	0.787341	0.692092
	O678	O	0.523015	0.778314	0.696123
	N679	N	0.532589	0.801318	0.695433
	H680	H	0.541362	0.806863	0.693055
	C681	C	0.577798	0.761171	0.631931
	O682	O	0.579242	0.770308	0.626129
	N683	N	0.582305	0.746724	0.630782
	H684	H	0.582857	0.740115	0.636269
	C685	C	0.239503	0.409246	0.034741
	C686	C	0.253368	0.414108	0.032211
	C687	C	0.266011	0.407728	0.035828
	C688	C	0.265321	0.396205	0.042000
	C689	C	0.251337	0.391288	0.044355
	C690	C	0.238645	0.397631	0.040762
	C691	C	0.278982	0.389300	0.045673
	C692	C	0.280281	0.374178	0.046649
	C693	C	0.293213	0.367661	0.049771
	C694	C	0.305314	0.376134	0.052107
	C695	C	0.304145	0.391203	0.051207
	C696	C	0.291209	0.397646	0.048060
	H697	H	0.294047	0.355947	0.050120
	H698	H	0.227908	0.393720	0.042617
	H699	H	0.313529	0.397771	0.052990
	H700	H	0.254275	0.422599	0.027208
	H701	H	0.271148	0.367420	0.044671
	H702	H	0.250383	0.382458	0.049123
	H703	H	0.276647	0.411466	0.033651
	H704	H	0.290548	0.409357	0.047509
	C705	C	0.225680	0.415668	0.030705
	O706	O	0.214758	0.408489	0.029572
	N707	N	0.226253	0.430636	0.029234
	H708	H	0.234013	0.436502	0.032580
	C709	C	0.319623	0.369606	0.055326
	O710	O	0.331317	0.375000	0.053507
	N711	N	0.318475	0.357061	0.060553
	H712	H	0.308523	0.354163	0.062979
	C713	C	0.039943	0.476072	-0.007410
	C714	C	0.035459	0.464832	-0.001760
	C715	C	0.020609	0.462732	-0.000073
	C716	C	0.009725	0.471642	-0.003997
	C717	C	0.014406	0.482696	-0.009785
	C718	C	0.029230	0.484834	-0.011512
	C719	C	-0.006169	0.469334	-0.002174
	C720	C	-0.016795	0.470951	-0.009032
	C721	C	-0.031640	0.468779	-0.007367
	C722	C	-0.036376	0.464946	0.001287
	C723	C	-0.025922	0.463150	0.008157
	C724	C	-0.011099	0.465328	0.006446
	H725	H	-0.039537	0.469704	-0.012841
	H726	H	0.032700	0.493404	-0.015997
	H727	H	-0.029596	0.460089	0.014845
	H728	H	0.043577	0.457498	0.001116
	H729	H	-0.013315	0.473630	-0.015822
	H730	H	0.006346	0.489839	-0.012902
	H731	H	0.017348	0.453809	0.004193
	H732	H	-0.003248	0.464097	0.011927
	C733	C	0.055881	0.478487	-0.009505
	O734	O	0.059761	0.482866	-0.016832
	N735	N	0.065330	0.476562	-0.002102
	H736	H	0.060973	0.476239	0.004238
	C737	C	-0.052341	0.462736	0.003399
	O738	O	-0.056234	0.453037	0.008319
	N739	N	-0.061745	0.473437	-0.000134
	H740	H	-0.057535	0.481361	-0.004105
	C741	C	0.529733	0.289145	-0.014601
	C742	C	0.516610	0.282394	-0.017036
	C743	C	0.505857	0.279923	-0.010560
	C744	C	0.507720	0.284202	-0.001482
	C745	C	0.520872	0.291128	0.000819
	C746	C	0.531650	0.293640	-0.005620
	C747	C	0.496086	0.281777	0.005411
	C748	C	0.492925	0.292275	0.012082
	C749	C	0.482051	0.290156	0.018521
	C750	C	0.473971	0.277337	0.018532
	C751	C	0.476918	0.266828	0.011903
	C752	C	0.487798	0.269024	0.005471
	H753	H	0.479584	0.298607	0.023429
	H754	H	0.541738	0.299033	-0.003752
	H755	H	0.470610	0.256924	0.011894
	H756	H	0.514645	0.279453	-0.024045
	H757	H	0.498849	0.302403	0.012079
	H758	H	0.522765	0.294481	0.007767
	H759	H	0.495659	0.274922	-0.012609
	H760	H	0.490023	0.260622	0.000486
	C761	C	0.541443	0.292412	-0.021434
	O762	O	0.549101	0.303032	-0.020693
	N763	N	0.543477	0.281666	-0.028058
	H764	H	0.539169	0.271656	-0.027030
	C765	C	0.462249	0.274718	0.025474
	O766	O	0.451374	0.267803	0.023682
	N767	N	0.465767	0.279723	0.034170
	H768	H	0.476443	0.281959	0.035640
	C769	C	0.699806	0.371653	0.946177
	C770	C	0.706787	0.364076	0.953202
	C771	C	0.718425	0.370268	0.957932
	C772	C	0.723395	0.384259	0.955926
	C773	C	0.716159	0.391794	0.948937
	C774	C	0.704516	0.385655	0.944178
	C775	C	0.735556	0.390947	0.961248
	C776	C	0.734956	0.405612	0.963896
	C777	C	0.746040	0.411811	0.969118
	C778	C	0.758242	0.403515	0.971809
	C779	C	0.759012	0.388919	0.969197
	C780	C	0.747874	0.382775	0.963999
	H781	H	0.744997	0.422996	0.971334
	H782	H	0.698951	0.391618	0.938836
	H783	H	0.768440	0.382479	0.971308
	H784	H	0.702795	0.353538	0.955177
	H785	H	0.725435	0.412121	0.962054
	H786	H	0.719744	0.402581	0.947173
	H787	H	0.723488	0.364350	0.963472
	H788	H	0.748794	0.371476	0.961987
	C789	C	0.686735	0.365518	0.941241
	O790	O	0.676655	0.373274	0.938804
	N791	N	0.688003	0.350716	0.939140
	H792	H	0.697553	0.345382	0.940645
	C793	C	0.770336	0.409757	0.977576
	O794	O	0.776438	0.402538	0.983345
	N795	N	0.774527	0.423789	0.975173
	H796	H	0.769404	0.428797	0.969879
	C797	C	0.784277	0.466584	0.428328
	C798	C	0.794667	0.464976	0.421440
	C799	C	0.790891	0.458417	0.413237
	C800	C	0.776648	0.453359	0.411569
	C801	C	0.766305	0.455232	0.418507
	C802	C	0.770005	0.461801	0.426718
	C803	C	0.772622	0.446593	0.402697
	C804	C	0.758944	0.449381	0.398596
	C805	C	0.755215	0.443313	0.390240
	C806	C	0.765086	0.434117	0.385703
	C807	C	0.778741	0.431254	0.389691
	C808	C	0.782407	0.437363	0.398045
	H809	H	0.744791	0.446046	0.387106
	H810	H	0.761902	0.463224	0.432008
	H811	H	0.786402	0.424176	0.386150
	H812	H	0.805584	0.469239	0.422406
	H813	H	0.751283	0.456744	0.401897
	H814	H	0.755234	0.451384	0.417500
	H815	H	0.799016	0.457539	0.407925
	H816	H	0.792988	0.434815	0.401042
	C817	C	0.787862	0.474052	0.437157
	O818	O	0.778735	0.481131	0.441248
	N819	N	0.801944	0.471025	0.440500
	H820	H	0.807563	0.462283	0.437976
	C821	C	0.761493	0.427430	0.376643
	O822	O	0.770642	0.425929	0.370766
	N823	N	0.746972	0.422995	0.375598
	H824	H	0.740369	0.422692	0.381122
	C825	C	0.760675	0.590230	0.533492
	C826	C	0.746929	0.585233	0.530707
	C827	C	0.734141	0.591194	0.534365
	C828	C	0.734559	0.602427	0.540833
	C829	C	0.748424	0.607495	0.543443
	C830	C	0.761261	0.601567	0.539811
	C831	C	0.720738	0.608876	0.544555
	C832	C	0.719130	0.623907	0.545948
	C833	C	0.706044	0.630000	0.549118
	C834	C	0.694123	0.621166	0.551132
	C835	C	0.695619	0.606176	0.549848
	C836	C	0.708692	0.600163	0.546633
	H837	H	0.704958	0.641672	0.549765
	H838	H	0.771904	0.605589	0.541868
	H839	H	0.686379	0.599326	0.551386
	H840	H	0.746224	0.576970	0.525482
	H841	H	0.728096	0.630954	0.544181
	H842	H	0.749171	0.616109	0.548441
	H843	H	0.723600	0.587356	0.531995
	H844	H	0.709602	0.588500	0.545779
	C845	C	0.774649	0.584248	0.529439
	O846	O	0.785438	0.591676	0.528595
	N847	N	0.774369	0.569344	0.527595
	H848	H	0.766658	0.563200	0.530692
	C849	C	0.679668	0.627211	0.554417
	O850	O	0.668108	0.621647	0.552371
	N851	N	0.680512	0.639512	0.559980
	H852	H	0.690396	0.642559	0.562518
	C853	C	0.477355	0.714373	0.480512
	C854	C	0.470450	0.715420	0.488935
	C855	C	0.478741	0.715902	0.496886
	C856	C	0.494148	0.715426	0.496734
	C857	C	0.500891	0.714685	0.488206
	C858	C	0.492669	0.714267	0.480229
	C859	C	0.502988	0.715776	0.505279
	C860	C	0.516369	0.723158	0.505797
	C861	C	0.524699	0.723403	0.513738
	C862	C	0.519875	0.716212	0.521473
	C863	C	0.506497	0.708988	0.521111
	C864	C	0.498239	0.708763	0.513147
	H865	H	0.534804	0.729453	0.514023
	H866	H	0.498001	0.713683	0.473687
	H867	H	0.502740	0.703507	0.527135
	H868	H	0.458602	0.716216	0.489226
	H869	H	0.520153	0.729053	0.499941
	H870	H	0.512743	0.714225	0.487795
	H871	H	0.473180	0.716982	0.503327
	H872	H	0.488047	0.702845	0.513003
	C873	C	0.468697	0.713900	0.471803
	O874	O	0.472825	0.719977	0.465033
	N875	N	0.456532	0.704803	0.472090
	H876	H	0.455649	0.697771	0.477363
	C877	C	0.528746	0.715909	0.530105
	O878	O	0.523121	0.718245	0.537393
	N879	N	0.543609	0.712585	0.528833
	H880	H	0.547356	0.710897	0.522416
	C881	C	0.428421	0.756799	0.358528
	C882	C	0.438824	0.747869	0.354246
	C883	C	0.445154	0.752095	0.346116
	C884	C	0.441485	0.765391	0.342020
	C885	C	0.431176	0.774312	0.346470
	C886	C	0.424822	0.770156	0.354606
	C887	C	0.448576	0.769983	0.333419
	C888	C	0.452725	0.784446	0.332059
	C889	C	0.459641	0.788756	0.324133
	C890	C	0.462470	0.778708	0.317197
	C891	C	0.458595	0.764238	0.318508
	C892	C	0.451700	0.759992	0.326452
	H893	H	0.463131	0.799882	0.323413
	H894	H	0.416941	0.777177	0.358003
	H895	H	0.460987	0.756403	0.313195
	H896	H	0.442313	0.737836	0.357429
	H897	H	0.450872	0.792341	0.337412
	H898	H	0.428007	0.784607	0.343491
	H899	H	0.453409	0.745161	0.343007
	H900	H	0.448581	0.748760	0.327227
	C901	C	0.421823	0.752813	0.367506
	O902	O	0.419552	0.761916	0.373303
	N903	N	0.417556	0.738299	0.368112
	H904	H	0.418975	0.731647	0.362642
	C905	C	0.470331	0.782874	0.308657
	O906	O	0.478570	0.774477	0.304815
	N907	N	0.467101	0.796894	0.305586
	H908	H	0.457700	0.801882	0.307738
	C909	C	0.561676	0.705981	0.550600
	C910	C	0.576571	0.708527	0.548883
	C911	C	0.587109	0.706826	0.555643
	C912	C	0.583128	0.702510	0.564381
	C913	C	0.568270	0.700033	0.566152
	C914	C	0.557747	0.701744	0.559385
	C915	C	0.594405	0.700491	0.571584
	N916	N	0.606537	0.692810	0.569546
	C917	C	0.616405	0.691092	0.576242
	N918	N	0.614718	0.696599	0.584611
	C919	C	0.602284	0.704172	0.586079
	N920	N	0.591863	0.706359	0.579763
	C921	C	0.629917	0.682527	0.574177
	C922	C	0.643757	0.687150	0.577120
	C923	C	0.656356	0.679215	0.574973
	C924	C	0.655575	0.666400	0.569789
	C925	C	0.641664	0.661776	0.566919
	C926	C	0.629075	0.669671	0.569075
	C927	C	0.599717	0.710483	0.595228
	C928	C	0.600858	0.701874	0.603012
	C929	C	0.597963	0.707730	0.611529
	C930	C	0.593806	0.722388	0.612567
	C931	C	0.592851	0.730991	0.604748
	C932	C	0.595746	0.725156	0.596234
	H933	H	0.598587	0.708688	0.554316
	H934	H	0.579790	0.711831	0.542156
	H935	H	0.546302	0.699830	0.560846
	H936	H	0.565260	0.696809	0.572920
	H937	H	0.644308	0.697038	0.581088
	H938	H	0.666967	0.682945	0.577271
	H939	H	0.640846	0.651908	0.562919
	H940	H	0.618393	0.666152	0.566791
	H941	H	0.604003	0.690591	0.602170
	H942	H	0.598819	0.700932	0.617474
	H943	H	0.589680	0.742325	0.605425
	H944	H	0.594832	0.731734	0.590206
	N945	N	0.553902	0.711152	0.535396
	C946	C	0.550438	0.707537	0.543462
	H947	H	0.539227	0.704851	0.545429
	N948	N	0.668080	0.646736	0.562352
	C949	C	0.668907	0.658162	0.567306
	H950	H	0.679443	0.662291	0.569767
	N951	N	0.586098	0.741707	0.622463
	C952	C	0.590245	0.728442	0.621547
	H953	H	0.590952	0.721050	0.627341
	C954	C	0.342651	0.328773	0.069480
	C955	C	0.356639	0.332982	0.066612
	C956	C	0.368963	0.324448	0.068406
	C957	C	0.367762	0.311357	0.073137
	C958	C	0.353855	0.307156	0.076096
	C959	C	0.341523	0.315727	0.074309
	C960	C	0.380967	0.302105	0.074781
	N961	N	0.383191	0.296646	0.083087
	C962	C	0.395340	0.288455	0.084163
	N963	N	0.404965	0.285601	0.077519
	C964	C	0.401936	0.291477	0.069425
	N965	N	0.390047	0.299776	0.067784
	C966	C	0.398522	0.282264	0.093249
	C967	C	0.397697	0.290951	0.101067
	C968	C	0.401125	0.285239	0.109527
	C969	C	0.405533	0.270649	0.110474
	C970	C	0.406186	0.261964	0.102626
	C971	C	0.402744	0.267653	0.094170
	C972	C	0.412362	0.288808	0.061858
	C973	C	0.427489	0.287508	0.063498
	C974	C	0.437243	0.285300	0.056402
	C975	C	0.432264	0.284356	0.047396
	C976	C	0.417092	0.285554	0.045796
	C977	C	0.407323	0.287720	0.052887
	H978	H	0.379700	0.327636	0.066116
	H979	H	0.357723	0.343026	0.062891
	H980	H	0.330850	0.312320	0.076608
	H981	H	0.353044	0.297083	0.079782
	H982	H	0.394355	0.302186	0.100299
	H983	H	0.400493	0.292101	0.115495
	H984	H	0.409535	0.250676	0.103238
	H985	H	0.403402	0.261003	0.088120
	H986	H	0.431345	0.288262	0.070424
	H987	H	0.448894	0.284321	0.057768
	H988	H	0.413042	0.284782	0.038900
	H989	H	0.395655	0.288721	0.051636
	N990	N	0.330700	0.349294	0.062687
	C991	C	0.329582	0.337675	0.067350
	H992	H	0.318956	0.333783	0.069725
	N993	N	0.414041	0.251579	0.120246
	C994	C	0.409635	0.264766	0.119394
	H995	H	0.408961	0.272191	0.125219
	N996	N	0.456365	0.281319	0.041164
	C997	C	0.442515	0.282408	0.039800
	H998	H	0.437578	0.282421	0.033016
	C999	C	0.804181	0.435815	-0.009951
	C1000	C	0.801533	0.450776	-0.008811
	C1001	C	0.810460	0.459141	-0.003245
	C1002	C	0.822377	0.452835	0.001382
	C1003	C	0.825137	0.437931	0.000228
	C1004	C	0.816195	0.429582	-0.005335
	C1005	C	0.831729	0.461678	0.007501
	N1006	N	0.846280	0.461390	0.006213
	C1007	C	0.854273	0.469379	0.011990
	N1008	N	0.848523	0.477378	0.018745
	C1009	C	0.833882	0.477085	0.019554
	N1010	N	0.825096	0.469403	0.014068
	C1011	C	0.870456	0.469301	0.010891
	C1012	C	0.879659	0.464264	0.017864
	C1013	C	0.894805	0.464166	0.016848
	C1014	C	0.901304	0.469106	0.008837
	C1015	C	0.892012	0.474123	0.001871
	C1016	C	0.876858	0.474216	0.002872
	C1017	C	0.826988	0.485651	0.026996
	C1018	C	0.831233	0.499969	0.028801
	C1019	C	0.824801	0.507900	0.035802
	C1020	C	0.813895	0.501825	0.041251
	C1021	C	0.809649	0.487493	0.039383
	C1022	C	0.816072	0.479549	0.032393
	H1023	H	0.808353	0.470623	-0.002279
	H1024	H	0.792291	0.455745	-0.012292
	H1025	H	0.818384	0.418060	-0.006125
	H1026	H	0.834383	0.433162	0.003793
	H1027	H	0.874623	0.460520	0.024030
	H1028	H	0.901801	0.460217	0.022275
	H1029	H	0.896838	0.477901	-0.004363
	H1030	H	0.869671	0.477985	-0.002492
	H1031	H	0.839679	0.504604	0.024632
	H1032	H	0.828182	0.518943	0.037136
	H1033	H	0.801192	0.482657	0.043475
	H1034	H	0.812770	0.468538	0.030929
	N1035	N	0.783704	0.432308	-0.019979
	C1036	C	0.794599	0.426773	-0.015652
	H1037	H	0.797561	0.415224	-0.016093
	N1038	N	0.923493	0.473835	0.000734
	C1039	C	0.917367	0.468974	0.007873
	H1040	H	0.923648	0.464996	0.013724
	N1041	N	0.810903	0.523036	0.050641
	C1042	C	0.807089	0.510022	0.048748
	H1043	H	0.798924	0.504175	0.052704
	C1044	C	0.706997	0.433233	0.294181
	C1045	C	0.717564	0.432211	0.301117
	C1046	C	0.715754	0.422826	0.308361
	C1047	C	0.703278	0.414117	0.308953
	C1048	C	0.692710	0.415087	0.302033
	C1049	C	0.694549	0.424445	0.294786
	C1050	C	0.701255	0.404080	0.316704
	N1051	N	0.693775	0.391839	0.315231
	C1052	C	0.692051	0.383121	0.322388
	N1053	N	0.697348	0.385991	0.330688
	C1054	C	0.704772	0.398414	0.331579
	N1055	N	0.706941	0.407752	0.324780
	C1056	C	0.683621	0.369609	0.320928
	C1057	C	0.669431	0.368246	0.324415
	C1058	C	0.661303	0.355852	0.322689
	C1059	C	0.667048	0.344401	0.317410
	C1060	C	0.681356	0.345764	0.314043
	C1061	C	0.689501	0.358147	0.315762
	C1062	C	0.710945	0.402200	0.340612
	C1063	C	0.702112	0.402306	0.348363
	C1064	C	0.707866	0.406191	0.356762
	C1065	C	0.722645	0.410132	0.357711
	C1066	C	0.731464	0.409882	0.349930
	C1067	C	0.725733	0.405984	0.341536
	H1068	H	0.723888	0.422088	0.313701
	H1069	H	0.727248	0.438877	0.300747
	H1070	H	0.686322	0.425015	0.289476
	H1071	H	0.683132	0.408310	0.302467
	H1072	H	0.665006	0.377135	0.328402
	H1073	H	0.650288	0.354974	0.325333
	H1074	H	0.685955	0.337043	0.309965
	H1075	H	0.700434	0.359323	0.313077
	H1076	H	0.690746	0.399284	0.347591
	H1077	H	0.700900	0.406257	0.362682
	H1078	H	0.742895	0.412864	0.350546
	H1079	H	0.732492	0.405902	0.335536
	N1080	N	0.719790	0.451541	0.285926
	C1081	C	0.708722	0.443159	0.286492
	H1082	H	0.699828	0.443187	0.281461
	N1083	N	0.663122	0.321221	0.310381
	C1084	C	0.658098	0.331603	0.315310
	H1085	H	0.647065	0.331566	0.318219
	N1086	N	0.741993	0.418553	0.367387
	C1087	C	0.728623	0.414594	0.366563
	H1088	H	0.721095	0.414650	0.372339
	C1089	C	0.564004	0.803172	0.240037
	C1090	C	0.551274	0.810240	0.236825
	C1091	C	0.542586	0.818665	0.242570
	C1092	C	0.546353	0.820332	0.251734
	C1093	C	0.559114	0.813429	0.254962
	C1094	C	0.567776	0.805005	0.249214
	C1095	C	0.536985	0.829073	0.257955
	N1096	N	0.536729	0.843547	0.257036
	C1097	C	0.528247	0.850953	0.262900
	N1098	N	0.520238	0.844687	0.269367
	C1099	C	0.521083	0.830161	0.269803
	N1100	N	0.529337	0.821956	0.264236
	C1101	C	0.527740	0.867041	0.262243
	C1102	C	0.531022	0.875716	0.269805
	C1103	C	0.530594	0.890767	0.269211
	C1104	C	0.526871	0.897705	0.261045
	C1105	C	0.523551	0.888948	0.253500
	C1106	C	0.523983	0.873889	0.254080
	C1107	C	0.512512	0.822717	0.276908
	C1108	C	0.497636	0.826069	0.278260
	C1109	C	0.489678	0.819089	0.284926
	C1110	C	0.496287	0.808513	0.290483
	C1111	C	0.511191	0.805180	0.289078
	C1112	C	0.519159	0.812145	0.282418
	H1113	H	0.532767	0.824092	0.240134
	H1114	H	0.548262	0.809001	0.229760
	H1115	H	0.577601	0.799709	0.251793
	H1116	H	0.561936	0.814797	0.262036
	H1117	H	0.533817	0.870350	0.276090
	H1118	H	0.533098	0.897344	0.275113
	H1119	H	0.520640	0.894119	0.247158
	H1120	H	0.521515	0.867126	0.248272
	H1121	H	0.492586	0.834257	0.274004
	H1122	H	0.478196	0.821771	0.285908
	H1123	H	0.516445	0.796986	0.293259
	H1124	H	0.530604	0.809531	0.281298
	N1125	N	0.569841	0.791927	0.225750
	C1126	C	0.573133	0.793930	0.234107
	H1127	H	0.582551	0.788556	0.237369
	N1128	N	0.523143	0.920176	0.253143
	C1129	C	0.526529	0.913661	0.260519
	H1130	H	0.529771	0.919479	0.266697
	N1131	N	0.474472	0.803961	0.299039
	C1132	C	0.488052	0.801094	0.297612
	H1133	H	0.494336	0.793308	0.301725
	C1134	C	0.429873	0.229165	0.138733
	C1135	C	0.439249	0.238925	0.143084
	C1136	C	0.445716	0.235392	0.151369
	C1137	C	0.443213	0.221998	0.155563
	C1138	C	0.433928	0.212253	0.151049
	C1139	C	0.427442	0.215713	0.142757
	C1140	C	0.450482	0.218182	0.164333
	C1141	C	0.455956	0.204108	0.165950
	C1142	C	0.463083	0.200564	0.174029
	C1143	C	0.464915	0.211044	0.180826
	C1144	C	0.459524	0.225095	0.179316
	C1145	C	0.452426	0.228571	0.171220
	H1146	H	0.467570	0.189739	0.174972
	H1147	H	0.420361	0.208068	0.139309
	H1148	H	0.460967	0.233221	0.184576
	H1149	H	0.441858	0.249077	0.139838
	H1150	H	0.454952	0.195925	0.160690
	H1151	H	0.431665	0.201851	0.154095
	H1152	H	0.453191	0.242969	0.154532
	H1153	H	0.448194	0.239495	0.170265
	C1154	C	0.423190	0.232437	0.129612
	O1155	O	0.421363	0.223080	0.123920
	N1156	N	0.418207	0.246738	0.128531
	H1157	H	0.417973	0.253491	0.134001
	C1158	C	0.472664	0.207627	0.189610
	O1159	O	0.479715	0.216706	0.193643
	N1160	N	0.469928	0.193774	0.192997
	H1161	H	0.461110	0.188233	0.190587
	C1162	C	0.787122	0.535503	0.069737
	C1163	C	0.797676	0.536707	0.076605
	C1164	C	0.794185	0.543439	0.084805
	C1165	C	0.780072	0.549082	0.086490
	C1166	C	0.769558	0.547611	0.079571
	C1167	C	0.772971	0.540868	0.071363
	C1168	C	0.776350	0.556033	0.095362
	C1169	C	0.762698	0.553844	0.099476
	C1170	C	0.759246	0.560079	0.107832
	C1171	C	0.769381	0.568845	0.112356
	C1172	C	0.783018	0.571109	0.108356
	C1173	C	0.786404	0.564838	0.100002
	H1174	H	0.748827	0.557802	0.110976
	H1175	H	0.764740	0.539758	0.066087
	H1176	H	0.790885	0.577850	0.111890
	H1177	H	0.808493	0.531996	0.075624
	H1178	H	0.754830	0.546811	0.096188
	H1179	H	0.758580	0.551912	0.080590
	H1180	H	0.802432	0.543996	0.090102
	H1181	H	0.796979	0.566922	0.096996
	C1182	C	0.790418	0.527871	0.060914
	O1183	O	0.781126	0.521096	0.056852
	N1184	N	0.804458	0.530406	0.057537
	H1185	H	0.810215	0.538976	0.060029
	C1186	C	0.766074	0.575686	0.121416
	O1187	O	0.775333	0.576769	0.127300
	N1188	N	0.751676	0.580781	0.122445
	H1189	H	0.745021	0.581408	0.116910
	C1190	C	0.633297	0.297827	0.301270
	C1191	C	0.640776	0.290696	0.294254
	C1192	C	0.634462	0.278944	0.289783
	C1193	C	0.620439	0.274004	0.292047
	C1194	C	0.613004	0.281384	0.299027
	C1195	C	0.619263	0.293138	0.303526
	C1196	C	0.613585	0.261716	0.287007
	C1197	C	0.598673	0.262119	0.284571
	C1198	C	0.592281	0.250895	0.279631
	C1199	C	0.600625	0.238745	0.277018
	C1200	C	0.615473	0.238183	0.279408
	C1201	C	0.621811	0.249461	0.284326
	H1202	H	0.580898	0.251788	0.277567
	H1203	H	0.613369	0.298811	0.308861
	H1204	H	0.621955	0.228804	0.277346
	H1205	H	0.651321	0.294645	0.292081
	H1206	H	0.592112	0.271586	0.286352
	H1207	H	0.602201	0.277825	0.300990
	H1208	H	0.640296	0.273757	0.284243
	H1209	H	0.633306	0.248703	0.286174
	C1210	C	0.639508	0.311007	0.305938
	O1211	O	0.631646	0.321017	0.308302
	N1212	N	0.654525	0.309994	0.307901
	H1213	H	0.660056	0.300637	0.306357
	C1214	C	0.594180	0.226477	0.271559
	O1215	O	0.601160	0.220466	0.265632
	N1216	N	0.579900	0.222745	0.273998
	H1217	H	0.575091	0.227822	0.279382
	C1218	C	0.716324	0.470794	0.263833
	C1219	C	0.713108	0.484896	0.266846
	C1220	C	0.713598	0.496539	0.260871
	C1221	C	0.717212	0.494561	0.251701
	C1222	C	0.720220	0.480305	0.248769
	C1223	C	0.719686	0.468607	0.254700
	C1224	C	0.717549	0.507079	0.245318
	C1225	C	0.712777	0.505672	0.236293
	C1226	C	0.712869	0.517370	0.230345
	C1227	C	0.717871	0.530935	0.233235
	C1228	C	0.722649	0.532517	0.242190
	C1229	C	0.722518	0.520780	0.248103
	H1230	H	0.708727	0.516082	0.223504
	H1231	H	0.721979	0.457647	0.252347
	H1232	H	0.726491	0.543044	0.244426
	H1233	H	0.709823	0.486669	0.273808
	H1234	H	0.708461	0.495379	0.233987
	H1235	H	0.723162	0.478335	0.241768
	H1236	H	0.710763	0.507324	0.263304
	H1237	H	0.726499	0.522255	0.254967
	C1238	C	0.715466	0.457966	0.270079
	O1239	O	0.711200	0.446249	0.267459
	N1240	N	0.721213	0.460473	0.278742
	H1241	H	0.727784	0.469215	0.279752
	C1242	C	0.718149	0.543798	0.226988
	O1243	O	0.715296	0.555971	0.229657
	N1244	N	0.722189	0.540446	0.218086
	H1245	H	0.727619	0.530909	0.216854
	C1246	C	0.598644	0.766784	0.216754
	C1247	C	0.589873	0.754663	0.215157
	C1248	C	0.595487	0.742589	0.210558
	C1249	C	0.610036	0.742080	0.207474
	C1250	C	0.618742	0.754265	0.209217
	C1251	C	0.613195	0.766370	0.213819
	C1252	C	0.616041	0.728897	0.202800
	C1253	C	0.630339	0.723776	0.204569
	C1254	C	0.635839	0.711193	0.200470
	C1255	C	0.627193	0.703326	0.194364
	C1256	C	0.612972	0.708335	0.192499
	C1257	C	0.607531	0.720909	0.196630
	H1258	H	0.646699	0.707225	0.202234
	H1259	H	0.620051	0.775681	0.215163
	H1260	H	0.606263	0.702209	0.187790
	H1261	H	0.578793	0.754498	0.217758
	H1262	H	0.637073	0.729507	0.209451
	H1263	H	0.629988	0.754309	0.206889
	H1264	H	0.588609	0.733195	0.209562
	H1265	H	0.596525	0.724636	0.194999
	C1266	C	0.593052	0.779722	0.222047
	O1267	O	0.601137	0.786999	0.226722
	N1268	N	0.578299	0.783224	0.220457
	H1269	H	0.573369	0.779388	0.214730
	C1270	C	0.632597	0.689499	0.189958
	O1271	O	0.624495	0.679414	0.188428
	N1272	N	0.647477	0.689214	0.187720
	H1273	H	0.653211	0.698612	0.187849
	C1274	C	0.522830	-0.039968	0.257978
	C1275	C	0.534325	-0.035485	0.252449
	C1276	C	0.536359	-0.020787	0.250722
	C1277	C	0.527129	-0.010051	0.254486
	C1278	C	0.515823	-0.014721	0.260161
	C1279	C	0.513747	-0.029397	0.261926
	C1280	C	0.529372	0.005683	0.252618
	C1281	C	0.527452	0.016273	0.259408
	C1282	C	0.529580	0.030966	0.257701
	C1283	C	0.533533	0.035595	0.249048
	C1284	C	0.535810	0.025156	0.242279
	C1285	C	0.533678	0.010487	0.244030
	H1286	H	0.528468	0.038828	0.263140
	H1287	H	0.504979	-0.032860	0.266321
	H1288	H	0.539153	0.028725	0.235624
	H1289	H	0.541904	-0.043483	0.249699
	H1290	H	0.524609	0.012885	0.266187
	H1291	H	0.508436	-0.006773	0.263156
	H1292	H	0.545482	-0.017525	0.246554
	H1293	H	0.535219	0.002654	0.238610
	C1294	C	0.520478	-0.055747	0.260106
	O1295	O	0.515852	-0.059558	0.267390
	N1296	N	0.522759	-0.065156	0.252762
	H1297	H	0.523230	-0.060902	0.246412
	C1298	C	0.536112	0.051343	0.246936
	O1299	O	0.546368	0.055023	0.242326
	N1300	N	0.525705	0.060944	0.250623
	H1301	H	0.517403	0.056948	0.254429
	C1302	C	0.567037	0.193232	0.259482
	C1303	C	0.551907	0.195969	0.258554
	C1304	C	0.543173	0.187148	0.253150
	C1305	C	0.549264	0.175245	0.248483
	C1306	C	0.564331	0.172380	0.249439
	C1307	C	0.573049	0.181217	0.254840
	C1308	C	0.540022	0.166049	0.242505
	N1309	N	0.540065	0.151667	0.243873
	C1310	C	0.531701	0.143834	0.238216
	N1311	N	0.523571	0.149582	0.231505
	C1312	C	0.524130	0.164047	0.230609
	N1313	N	0.532188	0.172666	0.235975
	C1314	C	0.531471	0.127836	0.239394
	C1315	C	0.536498	0.118551	0.232489
	C1316	C	0.536256	0.103575	0.233559
	C1317	C	0.530971	0.097333	0.241556
	C1318	C	0.525980	0.106706	0.248456
	C1319	C	0.526227	0.121691	0.247402
	C1320	C	0.515430	0.170931	0.223212
	C1321	C	0.500864	0.166938	0.221539
	C1322	C	0.492804	0.173365	0.214584
	C1323	C	0.498995	0.184015	0.209050
	C1324	C	0.513579	0.188006	0.210783
	C1325	C	0.521651	0.181588	0.217728
	H1326	H	0.531562	0.189333	0.252340
	H1327	H	0.547099	0.205205	0.262063
	H1328	H	0.584694	0.178952	0.255473
	H1329	H	0.568930	0.163143	0.245847
	H1330	H	0.540498	0.123389	0.226332
	H1331	H	0.540195	0.096514	0.228182
	H1332	H	0.521942	0.102076	0.254680
	H1333	H	0.522467	0.128938	0.252713
	H1334	H	0.496138	0.158690	0.225776
	H1335	H	0.481569	0.170182	0.213353
	H1336	H	0.518508	0.196266	0.206624
	H1337	H	0.532855	0.184698	0.219089
	N1338	N	0.571101	0.213613	0.269333
	C1339	C	0.576460	0.202723	0.264996
	H1340	H	0.588118	0.199710	0.265277
	N1341	N	0.525606	0.075550	0.249702
	C1342	C	0.530722	0.081447	0.242564
	H1343	H	0.534768	0.075104	0.236770
	N1344	N	0.477404	0.187285	0.199841
	C1345	C	0.490664	0.190830	0.201606
	H1346	H	0.496625	0.198776	0.197574
	C1347	C	0.710086	0.569884	0.203248
	C1348	C	0.720109	0.569653	0.196049
	C1349	C	0.718846	0.579451	0.188949
	C1350	C	0.707481	0.589853	0.188762
	C1351	C	0.697461	0.590130	0.195948
	C1352	C	0.698755	0.580355	0.203053
	C1353	C	0.706057	0.600344	0.181159
	N1354	N	0.699116	0.613015	0.182740
	C1355	C	0.697964	0.622152	0.175719
	N1356	N	0.703320	0.619294	0.167449
	C1357	C	0.710115	0.606390	0.166431
	N1358	N	0.711705	0.596629	0.173092
	C1359	C	0.690162	0.636174	0.177296
	C1360	C	0.697668	0.649367	0.177131
	C1361	C	0.690366	0.662397	0.178944
	C1362	C	0.675324	0.662682	0.180992
	C1363	C	0.667840	0.649429	0.181026
	C1364	C	0.675117	0.636408	0.179216
	C1365	C	0.716231	0.602550	0.157408
	C1366	C	0.707431	0.603127	0.149597
	C1367	C	0.713096	0.599173	0.141198
	C1368	C	0.727749	0.594482	0.140312
	C1369	C	0.736542	0.594055	0.148155
	C1370	C	0.730899	0.598017	0.156550
	H1371	H	0.726573	0.579214	0.183413
	H1372	H	0.728939	0.561683	0.196102
	H1373	H	0.690969	0.580761	0.208570
	H1374	H	0.688737	0.598189	0.195841
	H1375	H	0.709253	0.649052	0.175596
	H1376	H	0.696313	0.672500	0.178848
	H1377	H	0.656226	0.649460	0.182569
	H1378	H	0.669407	0.626189	0.179342
	H1379	H	0.696158	0.606717	0.150323
	H1380	H	0.706153	0.599631	0.135232
	H1381	H	0.747875	0.590485	0.147586
	H1382	H	0.737626	0.597569	0.162599
	N1383	N	0.721250	0.549676	0.210995
	C1384	C	0.711249	0.559561	0.210798
	H1385	H	0.702865	0.560618	0.216072
	N1386	N	0.654061	0.676526	0.185307
	C1387	C	0.667697	0.676392	0.183250
	H1388	H	0.674202	0.686335	0.183242
	N1389	N	0.746852	0.585310	0.130668
	C1390	C	0.733605	0.589931	0.131456
	H1391	H	0.726080	0.590394	0.125638
