data_Molecule from CHK

_cell_length_a		132.759987
_cell_length_b		127.995311
_cell_length_c		125.735769
_cell_angle_alpha	89.621690
_cell_angle_beta	105.583117
_cell_angle_gamma	90.112940
_symmetry_space_group_name_H-M	'P 1'
_symmetry_Int_Tables_number		1

loop_
	_symmetry_equiv_pos_as_xyz
	x,y,z

loop_
	_atom_site_label
	_atom_site_type_symbol
	_atom_site_fract_x
	_atom_site_fract_y
	_atom_site_fract_z
	C0	C	0.097074	0.250495	0.573185
	C1	C	0.104857	0.249874	0.567568
	C2	C	0.115397	0.248816	0.573225
	C3	C	0.118770	0.248398	0.584817
	C4	C	0.110927	0.248951	0.590398
	C5	C	0.100383	0.249861	0.584732
	C6	C	0.130114	0.247351	0.590901
	C7	C	0.133228	0.242491	0.601323
	C8	C	0.143783	0.241511	0.607214
	C9	C	0.151363	0.245414	0.602322
	C10	C	0.148658	0.250240	0.591892
	C11	C	0.137998	0.251193	0.586381
	C12	C	0.156944	0.254178	0.586823
	C13	C	0.155727	0.263429	0.580547
	C14	C	0.163525	0.267010	0.575886
	C15	C	0.172974	0.261602	0.577262
	C16	C	0.174132	0.252286	0.583418
	C17	C	0.166343	0.248686	0.588074
	C18	C	0.146908	0.236532	0.618424
	C19	C	0.155281	0.240432	0.626803
	C20	C	0.158189	0.235863	0.637272
	C21	C	0.152904	0.227177	0.640006
	C22	C	0.144599	0.223206	0.631598
	C23	C	0.141670	0.227773	0.621104
	H24	H	0.127350	0.239398	0.605014
	H25	H	0.135856	0.255021	0.578387
	H26	H	0.159549	0.244682	0.606738
	H27	H	0.148663	0.268010	0.579468
	H28	H	0.167466	0.241323	0.592547
	H29	H	0.162481	0.274178	0.571055
	H30	H	0.181106	0.247635	0.584276
	H31	H	0.094420	0.250303	0.589162
	H32	H	0.113048	0.248882	0.599339
	H33	H	0.102506	0.249985	0.558625
	H34	H	0.121063	0.248055	0.568479
	H35	H	0.135349	0.224333	0.614779
	H36	H	0.140565	0.216273	0.633220
	H37	H	0.164681	0.238989	0.643651
	H38	H	0.159458	0.247286	0.625186
	C39	C	0.085433	0.251611	0.567320
	O40	O	0.078506	0.248322	0.571482
	C41	C	0.082591	0.256869	0.556687
	C42	C	0.072450	0.257794	0.550071
	H43	H	0.088602	0.261280	0.554229
	N44	N	0.063823	0.252953	0.551504
	H45	H	0.071016	0.262766	0.542762
	H46	H	0.065904	0.246944	0.557339
	C47	C	0.181291	0.265863	0.571962
	O48	O	0.179141	0.272400	0.564304
	C49	C	0.191933	0.262113	0.576145
	C50	C	0.200041	0.264316	0.571484
	H51	H	0.193983	0.257790	0.583881
	N52	N	0.199539	0.269704	0.562049
	H53	H	0.207776	0.261368	0.575680
	H54	H	0.191825	0.271352	0.557759
	C55	C	0.156549	0.222565	0.651693
	O56	O	0.165197	0.224899	0.658034
	C57	C	0.149652	0.215482	0.655436
	C58	C	0.152281	0.210111	0.665406
	H59	H	0.141606	0.214777	0.650524
	N60	N	0.161713	0.209824	0.672980
	H61	H	0.146250	0.205448	0.667559
	H62	H	0.166974	0.215068	0.671067
	C63	C	-0.014199	0.258604	0.480572
	C64	C	-0.005323	0.255660	0.490265
	C65	C	0.004505	0.260206	0.493964
	H66	H	0.006934	0.266778	0.489784
	C67	C	0.010981	0.255698	0.503439
	C68	C	0.021927	0.258535	0.509547
	C69	C	0.007813	0.247328	0.508899
	C70	C	0.016510	0.244743	0.518895
	C71	C	-0.001966	0.242678	0.505108
	H72	H	-0.004397	0.236116	0.509301
	C73	C	-0.008402	0.247098	0.495560
	C74	C	-0.019257	0.244081	0.489248
	N75	N	0.024766	0.251756	0.518824
	N76	N	-0.022259	0.251335	0.480438
	O77	O	0.016541	0.238111	0.525754
	O78	O	0.027355	0.265196	0.507106
	O79	O	-0.024527	0.236976	0.491099
	O80	O	-0.014603	0.265677	0.474093
	C81	C	0.034656	0.252059	0.527104
	C82	C	-0.032254	0.251393	0.472438
	C83	C	0.038811	0.243082	0.533062
	C84	C	0.048326	0.243449	0.541150
	H85	H	0.034702	0.235720	0.531480
	C86	C	0.054124	0.252725	0.543361
	H87	H	0.051458	0.236449	0.545758
	C88	C	0.049900	0.261692	0.537360
	C89	C	0.040300	0.261385	0.529413
	H90	H	0.054052	0.269041	0.539248
	H91	H	0.037206	0.268548	0.525206
	C92	C	-0.036358	0.242216	0.467020
	C93	C	-0.046008	0.242338	0.459145
	H94	H	-0.031958	0.235023	0.468862
	C95	C	-0.051915	0.251553	0.456693
	H96	H	-0.049169	0.235213	0.454908
	C97	C	-0.047696	0.260710	0.462221
	C98	C	-0.037962	0.260657	0.469947
	H99	H	-0.051957	0.267983	0.460105
	H100	H	-0.034769	0.267829	0.473983
	C101	C	0.179251	0.197332	0.725531
	C102	C	0.177608	0.193799	0.736304
	C103	C	0.184907	0.192543	0.746476
	H104	H	0.193153	0.194107	0.747680
	C105	C	0.180831	0.189139	0.754990
	C106	C	0.186374	0.187029	0.766829
	C107	C	0.170216	0.187110	0.753442
	C108	C	0.168600	0.183633	0.764256
	C109	C	0.162918	0.188366	0.743263
	H110	H	0.154670	0.186818	0.742062
	C111	C	0.166989	0.191784	0.734745
	C112	C	0.161462	0.193991	0.722911
	N113	N	0.178592	0.183786	0.771930
	N114	N	0.169258	0.197323	0.717863
	O115	O	0.160506	0.181186	0.766214
	O116	O	0.195590	0.187853	0.771275
	O117	O	0.152253	0.193175	0.718431
	O118	O	0.187375	0.199710	0.723601
	C119	C	0.180607	0.181044	0.783410
	C120	C	0.167289	0.200424	0.706484
	C121	C	0.175216	0.172829	0.786776
	C122	C	0.177232	0.170152	0.797913
	H123	H	0.169399	0.168505	0.780733
	C124	C	0.184717	0.175575	0.806009
	H125	H	0.172751	0.163959	0.800387
	C126	C	0.189963	0.183913	0.802528
	C127	C	0.187993	0.186580	0.791404
	H128	H	0.195745	0.188229	0.808678
	H129	H	0.192161	0.193058	0.789008
	C130	C	0.159795	0.195248	0.698261
	C131	C	0.157910	0.198268	0.687228
	H132	H	0.155513	0.188734	0.700408
	C133	C	0.163423	0.206573	0.684090
	H134	H	0.152282	0.193959	0.680946
	C135	C	0.170999	0.211641	0.692425
	C136	C	0.172878	0.208661	0.703454
	H137	H	0.175371	0.218058	0.690152
	H138	H	0.178714	0.212794	0.709662
	C139	C	0.268185	0.259840	0.520737
	C140	C	0.258506	0.262860	0.523899
	C141	C	0.255154	0.259692	0.532980
	H142	H	0.259579	0.254298	0.539141
	C143	C	0.245692	0.263953	0.533557
	C144	C	0.239867	0.262255	0.542085
	C145	C	0.239973	0.270877	0.525611
	C146	C	0.230279	0.273852	0.528791
	C147	C	0.243334	0.274047	0.516530
	H148	H	0.238905	0.279435	0.510364
	C149	C	0.252803	0.269792	0.515953
	C150	C	0.258662	0.271470	0.507439
	N151	N	0.230706	0.268412	0.538740
	N152	N	0.267806	0.265277	0.510802
	O153	O	0.223422	0.279691	0.523991
	O154	O	0.242320	0.256754	0.550191
	O155	O	0.256244	0.276966	0.499330
	O156	O	0.275003	0.253967	0.525554
	C157	C	0.222846	0.268939	0.544654
	C158	C	0.275664	0.264566	0.504898
	C159	C	0.212251	0.269502	0.539005
	C160	C	0.204667	0.269870	0.544798
	H161	H	0.209868	0.269638	0.530081
	C162	C	0.207413	0.269558	0.556382
	H163	H	0.196453	0.270278	0.540351
	C164	C	0.218091	0.269220	0.561955
	C165	C	0.225693	0.268870	0.556187
	H166	H	0.220482	0.269469	0.570893
	H167	H	0.233859	0.268693	0.560720
	C168	C	0.272876	0.264613	0.493367
	C169	C	0.280511	0.263845	0.487676
	H170	H	0.264740	0.265109	0.488776
	C171	C	0.291163	0.263109	0.493297
	H172	H	0.278273	0.263881	0.478718
	C173	C	0.293850	0.262989	0.504879
	C174	C	0.286228	0.263733	0.510595
	H175	H	0.301949	0.261986	0.509483
	H176	H	0.288566	0.263601	0.519520
	C177	C	0.848222	0.224042	0.362507
	C178	C	0.856574	0.220154	0.370969
	C179	C	0.859642	0.224907	0.381301
	C180	C	0.854484	0.233762	0.383770
	C181	C	0.846035	0.237553	0.375358
	C182	C	0.842989	0.232798	0.365050
	C183	C	0.857764	0.238946	0.394800
	C184	C	0.850296	0.242993	0.399708
	C185	C	0.853156	0.248020	0.409962
	C186	C	0.863854	0.249019	0.415275
	C187	C	0.871631	0.245029	0.410739
	C188	C	0.868364	0.239975	0.400499
	C189	C	0.883019	0.246160	0.416599
	C190	C	0.890728	0.246556	0.410827
	C191	C	0.901309	0.247597	0.416280
	C192	C	0.904795	0.248486	0.427788
	C193	C	0.897145	0.248051	0.433599
	C194	C	0.886569	0.246863	0.428160
	C195	C	0.844998	0.252136	0.415057
	C196	C	0.846333	0.261512	0.421004
	C197	C	0.838670	0.265253	0.425719
	C198	C	0.829217	0.259917	0.424676
	C199	C	0.827940	0.250477	0.418849
	C200	C	0.835609	0.246703	0.414166
	H201	H	0.842078	0.242223	0.395441
	H202	H	0.874154	0.236769	0.396798
	H203	H	0.866113	0.253002	0.423128
	H204	H	0.888470	0.246264	0.401892
	H205	H	0.881016	0.246229	0.433063
	H206	H	0.907172	0.247848	0.411706
	H207	H	0.899643	0.248314	0.442533
	H208	H	0.836489	0.235890	0.358616
	H209	H	0.841911	0.244470	0.376812
	H210	H	0.860606	0.213202	0.369496
	H211	H	0.866016	0.221548	0.387670
	H212	H	0.834398	0.239254	0.409956
	H213	H	0.820969	0.245877	0.418273
	H214	H	0.839783	0.272545	0.430242
	H215	H	0.853388	0.266058	0.421787
	C216	C	0.844476	0.219288	0.350953
	O217	O	0.835807	0.221598	0.344613
	C218	C	0.851299	0.212100	0.347331
	C219	C	0.848628	0.206710	0.337444
	H220	H	0.859324	0.211286	0.352278
	N221	N	0.839224	0.206547	0.329820
	H222	H	0.854603	0.201929	0.335402
	H223	H	0.834036	0.211903	0.331611
	C224	C	0.916473	0.249712	0.433411
	O225	O	0.923306	0.246295	0.429232
	C226	C	0.919461	0.255257	0.443803
	C227	C	0.929666	0.256379	0.450180
	H228	H	0.913491	0.259714	0.446220
	N229	N	0.938259	0.251526	0.448748
	H230	H	0.931192	0.261544	0.457277
	H231	H	0.936132	0.245357	0.443200
	C232	C	0.821048	0.264371	0.430006
	O233	O	0.823342	0.271059	0.437420
	C234	C	0.810374	0.260634	0.426146
	C235	C	0.802397	0.263041	0.430898
	H236	H	0.808186	0.256150	0.418578
	N237	N	0.803085	0.268646	0.440165
	H238	H	0.794614	0.260085	0.426940
	H239	H	0.810842	0.270289	0.444278
	C240	C	0.223603	0.101002	0.903625
	C241	C	0.220085	0.107149	0.911111
	C242	C	0.218662	0.117916	0.909610
	C243	C	0.220670	0.123143	0.900542
	C244	C	0.224322	0.117020	0.893138
	C245	C	0.225760	0.106278	0.894667
	C246	C	0.219012	0.134657	0.898799
	C247	C	0.215044	0.138812	0.888134
	C248	C	0.213462	0.149573	0.886222
	C249	C	0.215959	0.156239	0.895373
	C250	C	0.219920	0.152437	0.906189
	C251	C	0.221392	0.141615	0.907710
	C252	C	0.222540	0.159757	0.915773
	C253	C	0.231313	0.158220	0.924795
	C254	C	0.233802	0.165176	0.933607
	C255	C	0.227712	0.174057	0.933915
	C256	C	0.218836	0.175488	0.924985
	C257	C	0.216333	0.168543	0.916159
	C258	C	0.209302	0.153802	0.874758
	C259	C	0.213043	0.163182	0.871402
	C260	C	0.209236	0.167039	0.860678
	C261	C	0.201509	0.161767	0.852692
	C262	C	0.197658	0.152468	0.856099
	C263	C	0.201467	0.148584	0.866824
	H264	H	0.213164	0.133557	0.881157
	H265	H	0.224474	0.138551	0.915998
	H266	H	0.214813	0.164573	0.894039
	H267	H	0.236409	0.151612	0.924812
	H268	H	0.209291	0.169834	0.909535
	H269	H	0.240636	0.163897	0.940503
	H270	H	0.213657	0.181976	0.925098
	H271	H	0.228657	0.101690	0.888886
	H272	H	0.226279	0.120746	0.886186
	H273	H	0.218624	0.103501	0.918334
	H274	H	0.215755	0.122334	0.915491
	H275	H	0.198136	0.141478	0.869176
	H276	H	0.191394	0.148363	0.850354
	H277	H	0.212233	0.174295	0.858214
	H278	H	0.219190	0.167418	0.877196
	C279	C	0.225301	0.089146	0.904669
	O280	O	0.229985	0.084425	0.898787
	C281	C	0.221212	0.083329	0.912538
	C282	C	0.222689	0.072729	0.914708
	H283	H	0.216124	0.087269	0.916676
	N284	N	0.228544	0.066046	0.910557
	H285	H	0.218907	0.069174	0.920514
	H286	H	0.231237	0.069517	0.904333
	C287	C	0.230938	0.181481	0.943771
	O288	O	0.237274	0.178789	0.952595
	C289	C	0.226564	0.191937	0.942604
	C290	C	0.228432	0.199331	0.950900
	H291	H	0.221989	0.194537	0.934525
	N292	N	0.234068	0.198146	0.961547
	H293	H	0.225008	0.207040	0.948834
	H294	H	0.236101	0.190364	0.963448
	C295	C	0.197719	0.166422	0.841031
	O296	O	0.199682	0.175636	0.839028
	C297	C	0.191889	0.159810	0.832162
	C298	C	0.187374	0.163132	0.821431
	H299	H	0.191474	0.151495	0.833708
	N300	N	0.186985	0.172991	0.817358
	H301	H	0.183587	0.157303	0.815415
	H302	H	0.191544	0.178107	0.823078
	C303	C	0.341029	0.272856	0.395147
	C304	C	0.334205	0.276409	0.401140
	C305	C	0.337150	0.276579	0.412658
	C306	C	0.347077	0.273208	0.418836
	C307	C	0.353932	0.269768	0.412810
	C308	C	0.351003	0.269671	0.401299
	C309	C	0.350203	0.273338	0.431206
	C310	C	0.360589	0.275274	0.437185
	C311	C	0.363700	0.275356	0.448773
	C312	C	0.356056	0.273511	0.454399
	C313	C	0.345576	0.271580	0.448783
	C314	C	0.342839	0.271487	0.437198
	C315	C	0.337573	0.269665	0.454986
	C316	C	0.329579	0.262256	0.451487
	C317	C	0.322176	0.260482	0.457339
	C318	C	0.322330	0.265968	0.467006
	C319	C	0.330249	0.273468	0.470424
	C320	C	0.337672	0.275248	0.464589
	C321	C	0.374853	0.277246	0.454970
	C322	C	0.379579	0.271716	0.464703
	C323	C	0.389994	0.273381	0.470435
	C324	C	0.396271	0.280713	0.466866
	C325	C	0.391568	0.286184	0.457085
	C326	C	0.381147	0.284507	0.451310
	H327	H	0.366413	0.276730	0.432751
	H328	H	0.334787	0.269925	0.432779
	H329	H	0.358317	0.273559	0.463344
	H330	H	0.329269	0.257650	0.444204
	H331	H	0.343525	0.281266	0.467389
	H332	H	0.316054	0.254710	0.454533
	H333	H	0.330428	0.278183	0.477579
	H334	H	0.356373	0.266942	0.396761
	H335	H	0.361622	0.266911	0.417163
	H336	H	0.326572	0.279287	0.396660
	H337	H	0.331704	0.279631	0.416920
	H338	H	0.377773	0.289029	0.443892
	H339	H	0.396164	0.291738	0.453861
	H340	H	0.393523	0.269004	0.477928
	H341	H	0.375113	0.265834	0.467702
	C342	C	0.338189	0.272537	0.382518
	O343	O	0.345004	0.272556	0.377373
	C344	C	0.327215	0.272090	0.376546
	C345	C	0.323444	0.272731	0.365169
	H346	H	0.321570	0.270277	0.381135
	N347	N	0.328980	0.274840	0.357795
	H348	H	0.315111	0.271577	0.361516
	H349	H	0.336520	0.277364	0.361766
	C350	C	0.313970	0.263631	0.473062
	O351	O	0.305849	0.258720	0.468555
	C352	C	0.315704	0.267171	0.484347
	C353	C	0.308576	0.266171	0.490566
	H354	H	0.323319	0.270264	0.488607
	N355	N	0.298711	0.262352	0.487260
	H356	H	0.310979	0.268756	0.499097
	H357	H	0.296359	0.261127	0.478769
	C358	C	0.407685	0.282065	0.473574
	O359	O	0.411967	0.275699	0.480937
	C360	C	0.413584	0.290942	0.471259
	C361	C	0.424190	0.292463	0.475914
	H362	H	0.409446	0.297214	0.466060
	N363	N	0.430966	0.285868	0.482727
	H364	H	0.427708	0.299619	0.473869
	H365	H	0.427540	0.278653	0.483388
	C366	C	0.821612	0.190333	0.235000
	C367	C	0.824287	0.189776	0.247330
	C368	C	0.825588	0.197856	0.254915
	H369	H	0.824757	0.205994	0.252436
	C370	C	0.828008	0.194712	0.265916
	C371	C	0.829826	0.201244	0.276076
	C372	C	0.829085	0.184235	0.269114
	C373	C	0.831624	0.183703	0.281448
	C374	C	0.827795	0.176155	0.261524
	H375	H	0.828598	0.168016	0.264001
	C376	C	0.825352	0.179296	0.250517
	C377	C	0.823364	0.172778	0.240321
	N378	N	0.831893	0.194164	0.285094
	N379	N	0.821119	0.179876	0.231311
	O380	O	0.833134	0.176017	0.287251
	O381	O	0.829623	0.210636	0.276646
	O382	O	0.823563	0.163388	0.239721
	O383	O	0.820161	0.198041	0.229230
	C384	C	0.833808	0.197221	0.296438
	C385	C	0.818498	0.176859	0.219907
	C386	C	0.841115	0.191891	0.304772
	C387	C	0.842943	0.194886	0.315767
	H388	H	0.845378	0.185357	0.302729
	C389	C	0.837549	0.203307	0.318754
	H390	H	0.848414	0.190463	0.322141
	C391	C	0.830139	0.208511	0.310309
	C392	C	0.828325	0.205562	0.299317
	H393	H	0.825866	0.215023	0.312463
	H394	H	0.822536	0.209719	0.293028
	C395	C	0.823403	0.168329	0.216546
	C396	C	0.820823	0.165391	0.205487
	H397	H	0.829370	0.164040	0.222512
	C398	C	0.813232	0.170852	0.197468
	H399	H	0.824933	0.158942	0.203005
	C400	C	0.808457	0.179485	0.200937
	C401	C	0.810999	0.182421	0.211983
	H402	H	0.802607	0.183838	0.194841
	H403	H	0.807098	0.189055	0.214376
	C404	C	0.735247	0.260973	0.483078
	C405	C	0.744883	0.263727	0.479662
	C406	C	0.748057	0.260277	0.470612
	H407	H	0.743499	0.254822	0.464686
	C408	C	0.757524	0.264341	0.469743
	C409	C	0.763183	0.262328	0.461158
	C410	C	0.763413	0.271346	0.477386
	C411	C	0.773056	0.274063	0.473941
	C412	C	0.760230	0.274797	0.486437
	H413	H	0.764791	0.280247	0.492367
	C414	C	0.750756	0.270738	0.487307
	C415	C	0.745055	0.272731	0.495876
	N416	N	0.772418	0.268404	0.464146
	N417	N	0.735826	0.266637	0.492850
	O418	O	0.780013	0.279898	0.478437
	O419	O	0.760554	0.256690	0.453249
	O420	O	0.747640	0.278370	0.503785
	O421	O	0.728328	0.255103	0.478559
	C422	C	0.780154	0.268660	0.458056
	C423	C	0.728063	0.266219	0.498903
	C424	C	0.790794	0.269190	0.463525
	C425	C	0.798255	0.269298	0.457567
	H426	H	0.793308	0.269504	0.472438
	C427	C	0.795336	0.268752	0.445996
	H428	H	0.806505	0.269685	0.461875
	C429	C	0.784618	0.268446	0.440597
	C430	C	0.777139	0.268357	0.446530
	H431	H	0.782101	0.268517	0.431656
	H432	H	0.768937	0.268202	0.442123
	C433	C	0.730981	0.266477	0.510430
	C434	C	0.723432	0.265977	0.516264
	H435	H	0.739149	0.266927	0.514911
	C436	C	0.712742	0.265306	0.510789
	H437	H	0.725769	0.266171	0.525217
	C438	C	0.709924	0.264981	0.499212
	C439	C	0.717458	0.265455	0.493355
	H440	H	0.701787	0.264019	0.494728
	H441	H	0.715019	0.265165	0.484439
	C442	C	0.211836	-0.023914	0.911247
	C443	C	0.215899	-0.013157	0.910136
	C444	C	0.213245	-0.003734	0.914117
	H445	H	0.207539	-0.003220	0.918832
	C446	C	0.218411	0.004990	0.911534
	C447	C	0.217356	0.016222	0.914292
	C448	C	0.225746	0.004324	0.905449
	C449	C	0.229698	0.015084	0.904176
	C450	C	0.228403	-0.005095	0.901468
	H451	H	0.234080	-0.005603	0.896715
	C452	C	0.223195	-0.013806	0.903997
	C453	C	0.224017	-0.024981	0.900919
	N454	N	0.224287	0.021865	0.909579
	N455	N	0.216950	-0.030605	0.905447
	O456	O	0.236201	0.017613	0.899556
	O457	O	0.211752	0.019881	0.919427
	O458	O	0.229522	-0.028624	0.895664
	O459	O	0.205474	-0.026516	0.916019
	C460	C	0.225443	0.033037	0.909940
	C461	C	0.214982	-0.041614	0.904025
	C462	C	0.227196	0.038510	0.900955
	C463	C	0.228278	0.049334	0.901284
	H464	H	0.227717	0.034385	0.893647
	C465	C	0.227496	0.055051	0.910515
	H466	H	0.229623	0.053517	0.894256
	C467	C	0.225847	0.049464	0.919534
	C468	C	0.224816	0.038623	0.919250
	H469	H	0.225622	0.053636	0.926937
	H470	H	0.223680	0.034534	0.926389
	C471	C	0.213416	-0.047763	0.912660
	C472	C	0.211496	-0.058442	0.911231
	H473	H	0.213740	-0.044249	0.920540
	C474	C	0.211039	-0.063274	0.901129
	H475	H	0.210016	-0.063030	0.917925
	C476	C	0.212479	-0.056969	0.892476
	C477	C	0.214465	-0.046313	0.893898
	H478	H	0.212120	-0.060566	0.884594
	H479	H	0.215584	-0.041684	0.887084
	C480	C	0.230060	0.262354	0.026338
	C481	C	0.232252	0.253016	0.020226
	C482	C	0.227898	0.250251	0.009276
	H483	H	0.222005	0.254953	0.003664
	C484	C	0.231683	0.241008	0.006062
	C485	C	0.228813	0.235821	-0.004971
	C486	C	0.239260	0.234942	0.013289
	C487	C	0.241504	0.225655	0.007120
	C488	C	0.243606	0.237707	0.024245
	H489	H	0.249508	0.233011	0.029853
	C490	C	0.239837	0.246962	0.027457
	C491	C	0.242782	0.252240	0.038450
	N492	N	0.235007	0.226683	-0.003784
	N493	N	0.236650	0.261431	0.037206
	O494	O	0.247592	0.218658	0.010568
	O495	O	0.222503	0.238692	-0.013276
	O496	O	0.249097	0.249397	0.046762
	O497	O	0.223930	0.269315	0.022868
	C498	C	0.234800	0.219485	-0.012561
	C499	C	0.237112	0.268893	0.045813
	C500	C	0.235787	0.208747	-0.010510
	C501	C	0.235582	0.201821	-0.019066
	H502	H	0.236728	0.205742	-0.002245
	C503	C	0.234277	0.205377	-0.029938
	H504	H	0.236362	0.193491	-0.017404
	C505	C	0.233450	0.216194	-0.031852
	C506	C	0.233669	0.223141	-0.023310
	H507	H	0.232909	0.219241	-0.040043
	H508	H	0.233129	0.231438	-0.025035
	C509	C	0.238491	0.265606	0.056725
	C510	C	0.238900	0.272867	0.065035
	H511	H	0.239118	0.257374	0.058770
	C512	C	0.238066	0.283630	0.062747
	H513	H	0.239968	0.270244	0.073488
	C514	C	0.236567	0.286818	0.051733
	C515	C	0.236132	0.279572	0.043399
	H516	H	0.235424	0.295021	0.049590
	H517	H	0.234968	0.282295	0.035000
	C518	C	0.522202	0.295189	0.510633
	C519	C	0.511035	0.292361	0.505360
	C520	C	0.501936	0.296861	0.506713
	H521	H	0.502045	0.303426	0.512126
	C522	C	0.492686	0.292276	0.500644
	C523	C	0.481618	0.295019	0.500182
	C524	C	0.492553	0.283785	0.493719
	C525	C	0.481415	0.280785	0.488611
	C526	C	0.501644	0.279308	0.492334
	H527	H	0.501536	0.272722	0.486946
	C528	C	0.510887	0.283893	0.498406
	C529	C	0.521932	0.281046	0.498937
	N530	N	0.475268	0.287777	0.492890
	N531	N	0.528329	0.288071	0.506469
	O532	O	0.478167	0.273858	0.482141
	O533	O	0.478564	0.301919	0.505006
	O534	O	0.524929	0.274198	0.493999
	O535	O	0.525476	0.302071	0.517151
	C536	C	0.464058	0.287394	0.490339
	C537	C	0.539566	0.287874	0.509596
	C538	C	0.458876	0.277793	0.489272
	C539	C	0.448014	0.277401	0.486813
	H540	H	0.463282	0.270588	0.490364
	C541	C	0.441983	0.286563	0.485260
	H542	H	0.444052	0.269908	0.485950
	C543	C	0.447288	0.296157	0.486476
	C544	C	0.458167	0.296574	0.488992
	H545	H	0.442872	0.303357	0.485752
	H546	H	0.462039	0.304081	0.489835
	C547	C	0.544932	0.278383	0.510645
	C548	C	0.555817	0.278185	0.513677
	H549	H	0.540667	0.271096	0.509218
	C550	C	0.561694	0.287433	0.515850
	H551	H	0.559911	0.270772	0.514491
	C552	C	0.556219	0.296921	0.514648
	C553	C	0.545321	0.297144	0.511572
	H554	H	0.560530	0.304207	0.515858
	H555	H	0.541331	0.304585	0.510658
	C556	C	0.299739	0.302898	0.265615
	C557	C	0.301026	0.298545	0.276979
	C558	C	0.310108	0.297153	0.285475
	H559	H	0.317770	0.299160	0.284596
	C560	C	0.308622	0.293019	0.295198
	C561	C	0.316548	0.290544	0.305843
	C562	C	0.298754	0.290506	0.296358
	C563	C	0.300008	0.286515	0.307850
	C564	C	0.289677	0.291808	0.287828
	H565	H	0.282014	0.289826	0.288719
	C566	C	0.291164	0.295888	0.278087
	C567	C	0.283240	0.298305	0.267414
	N568	N	0.310870	0.286727	0.313112
	N569	N	0.288897	0.302556	0.260346
	O570	O	0.293218	0.283714	0.311954
	O571	O	0.325909	0.291501	0.307922
	O572	O	0.273913	0.296978	0.265118
	O573	O	0.306440	0.306097	0.261589
	C574	C	0.315488	0.283617	0.324385
	C575	C	0.284207	0.306328	0.249358
	C576	C	0.311052	0.275606	0.329238
	C577	C	0.315432	0.272702	0.340206
	H578	H	0.304190	0.271529	0.324496
	C579	C	0.324414	0.277665	0.346651
	H580	H	0.312031	0.266313	0.343761
	C581	C	0.328948	0.285525	0.341624
	C582	C	0.324518	0.288520	0.330696
	H583	H	0.335944	0.289395	0.346464
	H584	H	0.328100	0.294783	0.327201
	C585	C	0.276214	0.300709	0.242170
	C586	C	0.271684	0.304402	0.231507
	H587	H	0.273543	0.293428	0.244870
	C588	C	0.274952	0.313841	0.227769
	H589	H	0.265303	0.300107	0.226112
	C590	C	0.282868	0.319493	0.235150
	C591	C	0.287492	0.315766	0.245765
	H592	H	0.285458	0.326825	0.232401
	H593	H	0.293640	0.320231	0.251246
	C594	C	0.771621	0.095616	0.101567
	C595	C	0.774883	0.101824	0.093865
	C596	C	0.776284	0.112593	0.095232
	C597	C	0.774504	0.117762	0.104374
	C598	C	0.771115	0.111576	0.112003
	C599	C	0.769701	0.100831	0.110607
	C600	C	0.776116	0.129284	0.105951
	C601	C	0.780300	0.133442	0.116525
	C602	C	0.781852	0.144210	0.118267
	C603	C	0.779102	0.150877	0.109038
	C604	C	0.774921	0.147074	0.098307
	C605	C	0.773491	0.136246	0.096957
	C606	C	0.772028	0.154400	0.088640
	C607	C	0.763126	0.152792	0.079803
	C608	C	0.760377	0.159755	0.070917
	C609	C	0.766320	0.168715	0.070351
	C610	C	0.775324	0.170218	0.079091
	C611	C	0.778090	0.163263	0.087987
	C612	C	0.786253	0.148457	0.129632
	C613	C	0.782606	0.157841	0.132961
	C614	C	0.786666	0.161746	0.143577
	C615	C	0.794560	0.156515	0.151479
	C616	C	0.798300	0.147201	0.148105
	C617	C	0.794242	0.143272	0.137485
	H618	H	0.782373	0.128183	0.123562
	H619	H	0.770244	0.133178	0.088737
	H620	H	0.780224	0.159216	0.110241
	H621	H	0.758133	0.146123	0.079991
	H622	H	0.785223	0.164613	0.094454
	H623	H	0.753447	0.158422	0.064167
	H624	H	0.780391	0.176773	0.078765
	H625	H	0.767005	0.096194	0.116559
	H626	H	0.769343	0.115254	0.119028
	H627	H	0.776152	0.098223	0.086578
	H628	H	0.778989	0.117058	0.089180
	H629	H	0.797498	0.136161	0.135146
	H630	H	0.804676	0.143128	0.153785
	H631	H	0.783747	0.169008	0.146020
	H632	H	0.776342	0.162049	0.127237
	C633	C	0.769949	0.083758	0.100654
	O634	O	0.765452	0.078971	0.106732
	C635	C	0.773847	0.078020	0.092671
	C636	C	0.772297	0.067443	0.090537
	H637	H	0.778845	0.082004	0.088400
	N638	N	0.766526	0.060718	0.094843
	H639	H	0.775932	0.063953	0.084623
	H640	H	0.764006	0.064115	0.101174
	C641	C	0.762801	0.176150	0.060438
	O642	O	0.756378	0.173405	0.051729
	C643	C	0.766990	0.186684	0.061426
	C644	C	0.764809	0.194121	0.053069
	H645	H	0.771645	0.189303	0.069429
	N646	N	0.759023	0.192904	0.042499
	H647	H	0.768083	0.201893	0.055011
	H648	H	0.757171	0.185087	0.040685
	C649	C	0.798663	0.161239	0.163010
	O650	O	0.796804	0.170478	0.164903
	C651	C	0.804696	0.154669	0.171888
	C652	C	0.809651	0.158098	0.182428
	H653	H	0.804875	0.146316	0.170547
	N654	N	0.810414	0.168038	0.186198
	H655	H	0.813514	0.152304	0.188522
	H656	H	0.805805	0.173155	0.180452
	C657	C	0.661632	0.274651	0.608396
	C658	C	0.668544	0.278403	0.602553
	C659	C	0.665806	0.278622	0.591035
	C660	C	0.656006	0.275106	0.584708
	C661	C	0.649062	0.271460	0.590581
	C662	C	0.651785	0.271311	0.602090
	C663	C	0.653088	0.275294	0.572340
	C664	C	0.642730	0.277120	0.566176
	C665	C	0.639802	0.277252	0.554587
	C666	C	0.647605	0.275581	0.549155
	C667	C	0.658064	0.273772	0.554958
	C668	C	0.660618	0.273624	0.566538
	C669	C	0.666216	0.272018	0.548933
	C670	C	0.674283	0.264703	0.552619
	C671	C	0.681785	0.263036	0.546891
	C672	C	0.681660	0.268538	0.537168
	C673	C	0.673683	0.275963	0.533579
	C674	C	0.666165	0.277640	0.539292
	C675	C	0.628678	0.279005	0.548181
	C676	C	0.624206	0.273515	0.538424
	C677	C	0.613832	0.275073	0.532471
	C678	C	0.607323	0.282208	0.535863
	C679	C	0.611771	0.287632	0.545674
	C680	C	0.622162	0.286087	0.551650
	H681	H	0.636785	0.278438	0.570466
	H682	H	0.668652	0.272156	0.571105
	H683	H	0.645487	0.275665	0.540211
	H684	H	0.674570	0.260079	0.559947
	H685	H	0.660264	0.283601	0.536356
	H686	H	0.687956	0.257328	0.549833
	H687	H	0.673531	0.280702	0.526382
	H688	H	0.646348	0.268422	0.606507
	H689	H	0.641470	0.268482	0.586111
	H690	H	0.676078	0.281397	0.607147
	H691	H	0.671307	0.281824	0.586885
	H692	H	0.625335	0.290577	0.559080
	H693	H	0.607009	0.293056	0.548759
	H694	H	0.610492	0.270688	0.524992
	H695	H	0.628840	0.267755	0.535568
	C696	C	0.664226	0.274273	0.621017
	O697	O	0.657256	0.274040	0.625959
	C698	C	0.675139	0.274076	0.627233
	C699	C	0.678650	0.274680	0.638626
	H700	H	0.680972	0.272491	0.622838
	N701	N	0.672847	0.276524	0.645783
	H702	H	0.686976	0.273726	0.642485
	H703	H	0.665293	0.278881	0.641625
	C704	C	0.690087	0.266277	0.531211
	O705	O	0.698265	0.261491	0.535856
	C706	C	0.688325	0.269709	0.519839
	C707	C	0.695420	0.268617	0.513610
	H708	H	0.680703	0.272775	0.515524
	N709	N	0.705283	0.264798	0.516965
	H710	H	0.692983	0.271113	0.505016
	H711	H	0.707686	0.263702	0.525490
	C712	C	0.595966	0.283413	0.528906
	O713	O	0.591995	0.277147	0.521397
	C714	C	0.589748	0.292014	0.531136
	C715	C	0.579185	0.293411	0.526111
	H716	H	0.593584	0.298174	0.536630
	N717	N	0.572736	0.286935	0.518882
	H718	H	0.575411	0.300354	0.528176
	H719	H	0.576349	0.279862	0.518167
	C720	C	0.209674	0.830969	0.843162
	C721	C	0.214823	0.840438	0.846636
	C722	C	0.216015	0.844223	0.857283
	C723	C	0.212204	0.838714	0.865085
	C724	C	0.207212	0.829160	0.861678
	C725	C	0.206013	0.825403	0.851025
	C726	C	0.213485	0.842815	0.876486
	C727	C	0.215867	0.836107	0.885694
	C728	C	0.217141	0.839808	0.896460
	C729	C	0.215918	0.850561	0.897859
	C730	C	0.213509	0.857554	0.888887
	C731	C	0.212345	0.853504	0.878278
	C732	C	0.212222	0.868992	0.890539
	C733	C	0.204640	0.874939	0.883011
	C734	C	0.203483	0.885605	0.884510
	C735	C	0.209781	0.890942	0.893605
	C736	C	0.217401	0.885010	0.901104
	C737	C	0.218573	0.874329	0.899620
	C738	C	0.219752	0.832506	0.906159
	C739	C	0.215523	0.833781	0.915168
	C740	C	0.218006	0.826969	0.924194
	C741	C	0.224903	0.818554	0.924810
	C742	C	0.229022	0.817205	0.915732
	C743	C	0.226533	0.823999	0.906679
	H744	H	0.216739	0.827828	0.884438
	H745	H	0.210504	0.858783	0.871250
	H746	H	0.216855	0.853551	0.906109
	H747	H	0.199425	0.871134	0.875974
	H748	H	0.224714	0.870089	0.905475
	H749	H	0.197585	0.890086	0.878600
	H750	H	0.222679	0.888882	0.908023
	H751	H	0.202055	0.818040	0.848493
	H752	H	0.204026	0.824696	0.867375
	H753	H	0.218115	0.844814	0.840987
	H754	H	0.220201	0.851484	0.859688
	H755	H	0.230071	0.822781	0.899955
	H756	H	0.234165	0.810683	0.915665
	H757	H	0.214654	0.828076	0.931085
	H758	H	0.210031	0.840070	0.915020
	C759	C	0.208059	0.826433	0.831567
	O760	O	0.205478	0.817143	0.829524
	C761	C	0.209470	0.833245	0.822813
	C762	C	0.209325	0.830037	0.812273
	H763	H	0.210142	0.841591	0.824279
	N764	N	0.208377	0.820166	0.808306
	H765	H	0.210115	0.835995	0.806341
	H766	H	0.206466	0.814909	0.813813
	C767	C	0.208151	0.902700	0.894670
	O768	O	0.203036	0.908017	0.886714
	C769	C	0.212653	0.907666	0.905217
	C770	C	0.212570	0.918330	0.907020
	H771	H	0.215715	0.902774	0.912435
	N772	N	0.209028	0.925934	0.899394
	H773	H	0.215727	0.921135	0.915404
	H774	H	0.207297	0.923021	0.891391
	C775	C	0.227336	0.811426	0.935042
	O776	O	0.222131	0.811864	0.941929
	C777	C	0.235938	0.804080	0.936714
	C778	C	0.238602	0.796818	0.945227
	H779	H	0.241116	0.804519	0.931370
	N780	N	0.233581	0.794854	0.953089
	H781	H	0.245416	0.791945	0.945740
	H782	H	0.226496	0.798832	0.951541
	C783	C	0.262576	0.329403	0.181618
	C784	C	0.265353	0.322892	0.173926
	C785	C	0.264008	0.326028	0.162979
	C786	C	0.259854	0.335859	0.159127
	C787	C	0.257106	0.342369	0.166846
	C788	C	0.258492	0.339241	0.177783
	C789	C	0.258569	0.339332	0.147441
	C790	C	0.260134	0.349820	0.144964
	C791	C	0.258995	0.353344	0.134110
	C792	C	0.256223	0.346003	0.125581
	C793	C	0.254591	0.335429	0.127656
	C794	C	0.255791	0.332270	0.138641
	C795	C	0.251633	0.327760	0.118404
	C796	C	0.244392	0.319730	0.118299
	C797	C	0.241609	0.312654	0.109615
	C798	C	0.245860	0.313187	0.100544
	C799	C	0.253203	0.321134	0.100725
	C800	C	0.255993	0.328231	0.109400
	C801	C	0.260616	0.364617	0.131782
	C802	C	0.254447	0.369740	0.122375
	C803	C	0.255819	0.380316	0.120416
	C804	C	0.263374	0.386381	0.127744
	C805	C	0.269702	0.381207	0.137015
	C806	C	0.268356	0.370626	0.138978
	H807	H	0.262278	0.355391	0.151641
	H808	H	0.254525	0.324141	0.140359
	H809	H	0.255297	0.348568	0.117145
	H810	H	0.240709	0.319138	0.124999
	H811	H	0.261856	0.334118	0.109320
	H812	H	0.235979	0.306503	0.109651
	H813	H	0.257006	0.321592	0.094130
	H814	H	0.256303	0.344362	0.183636
	H815	H	0.253653	0.349943	0.164237
	H816	H	0.268827	0.315363	0.176652
	H817	H	0.266495	0.320849	0.157385
	H818	H	0.273558	0.366897	0.146128
	H819	H	0.275955	0.385486	0.142591
	H820	H	0.250959	0.384181	0.113131
	H821	H	0.248304	0.365460	0.116625
	C822	C	0.264024	0.326494	0.193772
	O823	O	0.264195	0.333274	0.200886
	C824	C	0.265183	0.315565	0.196964
	C825	C	0.267667	0.311991	0.207781
	H826	H	0.263174	0.309707	0.190540
	N827	N	0.270368	0.317840	0.217057
	H828	H	0.267634	0.303608	0.209254
	H829	H	0.271752	0.325584	0.215251
	C830	C	0.242426	0.305186	0.091244
	O831	O	0.237761	0.297004	0.092495
	C832	C	0.244593	0.307346	0.080735
	C833	C	0.242425	0.300608	0.071830
	H834	H	0.247540	0.314997	0.079338
	N835	N	0.238506	0.290793	0.071377
	H836	H	0.244042	0.303322	0.064242
	H837	H	0.238248	0.288105	0.079136
	C838	C	0.264385	0.398030	0.125326
	O839	O	0.260793	0.401803	0.115915
	C840	C	0.269447	0.404751	0.134452
	C841	C	0.271519	0.415278	0.133554
	H842	H	0.271101	0.401597	0.142777
	N843	N	0.270026	0.421084	0.124214
	H844	H	0.274805	0.419544	0.141150
	H845	H	0.266108	0.416890	0.117257
	C846	C	0.781911	-0.029325	0.092661
	C847	C	0.778086	-0.018564	0.094066
	C848	C	0.780841	-0.009062	0.090210
	H849	H	0.786467	-0.008476	0.085396
	C850	C	0.775881	-0.000364	0.093041
	C851	C	0.777069	0.010923	0.090438
	C852	C	0.768650	-0.001122	0.099253
	C853	C	0.764903	0.009638	0.100770
	C854	C	0.765895	-0.010620	0.103114
	H855	H	0.760295	-0.011202	0.107959
	C856	C	0.770890	-0.019310	0.100326
	C857	C	0.769892	-0.030562	0.103180
	N858	N	0.770314	0.016504	0.095359
	N859	N	0.776743	-0.036131	0.098386
	O860	O	0.758553	0.012110	0.105576
	O861	O	0.782639	0.014662	0.085258
	O862	O	0.764413	-0.034296	0.108466
	O863	O	0.788133	-0.031852	0.087717
	C864	C	0.769278	0.027686	0.095123
	C865	C	0.778423	-0.047216	0.099438
	C866	C	0.767746	0.033000	0.104231
	C867	C	0.766772	0.043834	0.104012
	H868	H	0.767315	0.028740	0.111547
	C869	C	0.767430	0.049717	0.094762
	H870	H	0.765601	0.047894	0.111134
	C871	C	0.768875	0.044291	0.085628
	C872	C	0.769800	0.033441	0.085805
	H873	H	0.769012	0.048592	0.078219
	H874	H	0.770771	0.029480	0.078578
	C875	C	0.778890	-0.052304	0.109419
	C876	C	0.780627	-0.063032	0.110481
	H877	H	0.778040	-0.047904	0.116436
	C878	C	0.781821	-0.069027	0.101590
	H879	H	0.780995	-0.066923	0.118268
	C880	C	0.781391	-0.063811	0.091627
	C881	C	0.779715	-0.053064	0.090558
	H882	H	0.782713	-0.068155	0.084760
	H883	H	0.779483	-0.049246	0.082800
	C884	C	0.751260	0.231785	0.006614
	C885	C	0.752634	0.236801	-0.003684
	C886	C	0.749243	0.246532	-0.008208
	H887	H	0.744899	0.251837	-0.004433
	C888	C	0.751865	0.248957	-0.017924
	C889	C	0.749565	0.258651	-0.024859
	C890	C	0.757452	0.242124	-0.022792
	C891	C	0.758931	0.247225	-0.033015
	C892	C	0.760827	0.232383	-0.018274
	H893	H	0.765187	0.227085	-0.022038
	C894	C	0.758224	0.229963	-0.008542
	C895	C	0.760639	0.220334	-0.001499
	N896	N	0.754057	0.257129	-0.033740
	N897	N	0.756275	0.221950	0.007467
	O898	O	0.763373	0.243758	-0.039415
	O899	O	0.744848	0.266290	-0.023341
	O900	O	0.765363	0.212690	-0.002984
	O901	O	0.746789	0.235270	0.012981
	C902	C	0.753818	0.264724	-0.042271
	C903	C	0.756961	0.214634	0.016351
	C904	C	0.752667	0.261628	-0.053163
	C905	C	0.752465	0.269038	-0.061383
	H906	H	0.751936	0.253438	-0.055282
	C907	C	0.753290	0.279759	-0.059018
	H908	H	0.751580	0.266568	-0.069821
	C909	C	0.754585	0.282752	-0.048016
	C910	C	0.754811	0.275358	-0.039774
	H911	H	0.755711	0.290921	-0.045816
	H912	H	0.755944	0.277911	-0.031356
	C913	C	0.756251	0.203899	0.014364
	C914	C	0.756891	0.196844	0.023005
	H915	H	0.755066	0.201002	0.006061
	C916	C	0.758371	0.200266	0.033902
	H917	H	0.756328	0.188518	0.021390
	C918	C	0.758977	0.211074	0.035766
	C919	C	0.758310	0.218150	0.027137
	H920	H	0.759657	0.214009	0.043989
	H921	H	0.758795	0.226427	0.028859
	C922	C	0.698922	0.303618	0.738087
	C923	C	0.698089	0.299506	0.726769
	C924	C	0.689233	0.298024	0.718034
	H925	H	0.681432	0.299758	0.718647
	C926	C	0.691135	0.294168	0.708443
	C927	C	0.683534	0.291678	0.697623
	C928	C	0.701181	0.292002	0.707625
	C929	C	0.700367	0.288231	0.696188
	C930	C	0.710034	0.293397	0.716393
	H931	H	0.717836	0.291682	0.715770
	C932	C	0.708131	0.297195	0.726006
	C933	C	0.715725	0.299601	0.736867
	N934	N	0.689574	0.288214	0.690604
	N935	N	0.709693	0.303484	0.743690
	O936	O	0.707406	0.285762	0.692340
	O937	O	0.674139	0.292396	0.695243
	O938	O	0.725089	0.298522	0.739463
	O939	O	0.691958	0.306487	0.741857
	C940	C	0.685328	0.285170	0.679287
	C941	C	0.713971	0.307083	0.754775
	C942	C	0.690150	0.277399	0.674632
	C943	C	0.686107	0.274542	0.663632
	H944	H	0.697051	0.273473	0.679553
	C945	C	0.677080	0.279298	0.656962
	H946	H	0.689808	0.268333	0.660232
	C947	C	0.672182	0.286939	0.661777
	C948	C	0.676272	0.289890	0.672736
	H949	H	0.665160	0.290665	0.656754
	H950	H	0.672404	0.295977	0.676070
	C951	C	0.721922	0.301506	0.762139
	C952	C	0.726035	0.305017	0.772904
	H953	H	0.724882	0.294394	0.759497
	C954	C	0.722389	0.314237	0.776569
	H955	H	0.732384	0.300762	0.778449
	C956	C	0.714514	0.319851	0.769021
	C957	C	0.710306	0.316301	0.758299
	H958	H	0.711623	0.327007	0.771719
	H959	H	0.704181	0.320729	0.752685
	C960	C	0.180299	0.796112	0.715196
	C961	C	0.186171	0.799538	0.726524
	C962	C	0.182768	0.800221	0.736036
	H963	H	0.174899	0.798153	0.736193
	C964	C	0.190210	0.803783	0.745326
	C965	C	0.189229	0.805492	0.756768
	C966	C	0.200335	0.806476	0.745117
	C967	C	0.206184	0.809998	0.756415
	C968	C	0.203743	0.805778	0.735612
	H969	H	0.211609	0.807857	0.735452
	C970	C	0.196299	0.802221	0.726322
	C971	C	0.197268	0.800579	0.714868
	N972	N	0.199072	0.809237	0.762992
	N973	N	0.187393	0.796948	0.708604
	O974	O	0.215141	0.812889	0.759474
	O975	O	0.181661	0.804052	0.760156
	O976	O	0.204854	0.801994	0.711502
	O977	O	0.171333	0.793249	0.712123
	C978	C	0.201486	0.812013	0.774454
	C979	C	0.184870	0.794512	0.697047
	C980	C	0.207863	0.820605	0.778415
	C981	C	0.210179	0.823323	0.789522
	H982	H	0.211090	0.825192	0.772868
	C983	C	0.206149	0.817580	0.796994
	H984	H	0.215409	0.829811	0.792486
	C985	C	0.199886	0.808870	0.792941
	C986	C	0.197526	0.806156	0.781833
	H987	H	0.196758	0.804295	0.798616
	H988	H	0.192688	0.799393	0.778981
	C989	C	0.188984	0.800463	0.689855
	C990	C	0.186494	0.798110	0.678651
	H991	H	0.194044	0.807026	0.692920
	C992	C	0.179776	0.789801	0.674264
	H993	H	0.189675	0.802812	0.673111
	C994	C	0.175801	0.783803	0.681597
	C995	C	0.178304	0.786119	0.692817
	H996	H	0.170908	0.777103	0.678538
	H997	H	0.175149	0.781322	0.698262
	C998	C	0.256296	0.727250	0.018567
	C999	C	0.251193	0.734569	0.009385
	C1000	C	0.255104	0.743698	0.005950
	H1001	H	0.262844	0.746641	0.009913
	C1002	C	0.248335	0.748776	-0.002943
	C1003	C	0.249971	0.758664	-0.008663
	C1004	C	0.238367	0.744993	-0.008046
	C1005	C	0.233300	0.752308	-0.017256
	C1006	C	0.234449	0.735871	-0.004595
	H1007	H	0.226706	0.732933	-0.008554
	C1008	C	0.241210	0.730799	0.004312
	C1009	C	0.239571	0.720940	0.010099
	N1010	N	0.240668	0.760342	-0.017163
	N1011	N	0.248911	0.719263	0.018552
	O1012	O	0.224716	0.751618	-0.023584
	O1013	O	0.257593	0.764209	-0.006547
	O1014	O	0.231931	0.715425	0.008095
	O1015	O	0.264919	0.727901	0.024830
	C1016	C	0.238932	0.769069	-0.024688
	C1017	C	0.250672	0.710639	0.026196
	C1018	C	0.229067	0.773692	-0.028267
	C1019	C	0.227421	0.782153	-0.035552
	H1020	H	0.222627	0.770740	-0.025383
	C1021	C	0.235536	0.786237	-0.039546
	H1022	H	0.219718	0.785663	-0.038322
	C1023	C	0.245441	0.781617	-0.035764
	C1024	C	0.247113	0.773154	-0.028471
	H1025	H	0.251992	0.784825	-0.038301
	H1026	H	0.254823	0.769722	-0.025806
	C1027	C	0.242645	0.706921	0.030456
	C1028	C	0.244439	0.698644	0.037978
	H1029	H	0.235011	0.710540	0.028033
	C1030	C	0.254294	0.693863	0.041517
	H1031	H	0.238180	0.695845	0.041303
	C1032	C	0.262227	0.697539	0.037001
	C1033	C	0.260456	0.705814	0.029474
	H1034	H	0.269796	0.693743	0.039202
	H1035	H	0.266725	0.708470	0.026137
	C1036	C	0.267850	0.471578	0.131930
	C1037	C	0.266603	0.482636	0.127876
	C1038	C	0.266109	0.491722	0.133707
	H1039	H	0.266602	0.491672	0.142443
	C1040	C	0.264907	0.500878	0.127485
	C1041	C	0.264034	0.511882	0.131056
	C1042	C	0.264286	0.500957	0.116243
	C1043	C	0.263111	0.512051	0.112258
	C1044	C	0.264741	0.491857	0.110402
	H1045	H	0.264231	0.491908	0.101663
	C1046	C	0.265894	0.482687	0.116608
	C1047	C	0.266582	0.471630	0.113045
	N1048	N	0.262987	0.518204	0.121542
	N1049	N	0.267754	0.465384	0.122631
	O1050	O	0.262437	0.515258	0.103057
	O1051	O	0.264123	0.514888	0.140147
	O1052	O	0.266241	0.468503	0.103934
	O1053	O	0.268757	0.468414	0.141193
	C1054	C	0.261852	0.529379	0.121354
	C1055	C	0.268539	0.454193	0.122921
	C1056	C	0.255572	0.534487	0.112078
	C1057	C	0.254450	0.545317	0.111935
	H1058	H	0.251452	0.530050	0.104943
	C1059	C	0.259533	0.551371	0.121065
	H1060	H	0.249321	0.549101	0.104780
	C1061	C	0.265710	0.546138	0.130384
	C1062	C	0.266906	0.535328	0.130518
	H1063	H	0.269662	0.550684	0.137547
	H1064	H	0.271875	0.531598	0.137778
	C1065	C	0.262393	0.448181	0.114375
	C1066	C	0.263016	0.437316	0.114844
	H1067	H	0.257004	0.451941	0.107415
	C1068	C	0.269742	0.432133	0.123861
	H1069	H	0.258134	0.432689	0.108234
	C1070	C	0.276081	0.438284	0.132237
	C1071	C	0.275460	0.449148	0.131805
	H1072	H	0.281683	0.434553	0.139075
	H1073	H	0.280395	0.453686	0.138410
	C1074	C	0.783481	0.821578	0.154694
	C1075	C	0.778246	0.831134	0.151857
	C1076	C	0.776826	0.835616	0.141413
	C1077	C	0.780476	0.830756	0.133186
	C1078	C	0.785553	0.821115	0.135951
	C1079	C	0.786986	0.816666	0.146403
	C1080	C	0.778969	0.835594	0.122005
	C1081	C	0.776400	0.829467	0.112439
	C1082	C	0.774936	0.833856	0.101873
	C1083	C	0.776151	0.844703	0.101047
	C1084	C	0.778722	0.851135	0.110389
	C1085	C	0.780076	0.846408	0.120784
	C1086	C	0.779996	0.862684	0.109328
	C1087	C	0.787661	0.868283	0.117067
	C1088	C	0.788831	0.879041	0.116083
	C1089	C	0.782465	0.884824	0.107317
	C1090	C	0.774746	0.879242	0.099624
	C1091	C	0.773558	0.868471	0.100595
	C1092	C	0.772145	0.827168	0.091785
	C1093	C	0.776276	0.829063	0.082784
	C1094	C	0.773616	0.822834	0.073385
	C1095	C	0.766661	0.814402	0.072395
	C1096	C	0.762646	0.812426	0.081462
	C1097	C	0.765296	0.818647	0.090877
	H1098	H	0.775538	0.821104	0.113250
	H1099	H	0.782048	0.851240	0.128095
	H1100	H	0.775078	0.848211	0.092953
	H1101	H	0.792937	0.864137	0.123854
	H1102	H	0.767344	0.864503	0.094607
	H1103	H	0.794799	0.883249	0.122144
	H1104	H	0.769406	0.883450	0.092965
	H1105	H	0.791011	0.809248	0.148433
	H1106	H	0.788623	0.817138	0.129908
	H1107	H	0.775079	0.835040	0.157845
	H1108	H	0.772589	0.842924	0.139504
	H1109	H	0.761846	0.816962	0.097596
	H1110	H	0.757472	0.805845	0.081220
	H1111	H	0.776939	0.824370	0.066530
	H1112	H	0.781822	0.835377	0.083226
	C1113	C	0.785386	0.816276	0.166036
	O1114	O	0.788218	0.806981	0.167506
	C1115	C	0.783958	0.822333	0.175234
	C1116	C	0.784519	0.818365	0.185655
	H1117	H	0.782910	0.830716	0.174235
	N1118	N	0.785976	0.808296	0.189105
	H1119	H	0.783661	0.823813	0.191959
	H1120	H	0.787910	0.803581	0.183232
	C1121	C	0.784141	0.896646	0.106772
	O1122	O	0.789303	0.901586	0.114939
	C1123	C	0.779650	0.902112	0.096448
	C1124	C	0.779876	0.912850	0.095059
	H1125	H	0.776477	0.897568	0.089052
	N1126	N	0.783577	0.920096	0.102952
	H1127	H	0.776705	0.916036	0.086797
	H1128	H	0.785302	0.916822	0.110841
	C1129	C	0.764048	0.807900	0.061800
	O1130	O	0.769291	0.808641	0.054962
	C1131	C	0.755215	0.800797	0.059731
	C1132	C	0.752421	0.793973	0.050918
	H1133	H	0.749952	0.801149	0.064986
	N1134	N	0.757535	0.792221	0.043117
	H1135	H	0.745415	0.789284	0.050081
	H1136	H	0.764778	0.795938	0.044982
	C1137	C	0.732497	0.328594	0.822916
	C1138	C	0.729491	0.321722	0.830251
	C1139	C	0.730287	0.324505	0.841162
	C1140	C	0.734092	0.334323	0.845331
	C1141	C	0.737067	0.341196	0.837966
	C1142	C	0.736227	0.338420	0.827064
	C1143	C	0.734799	0.337410	0.856977
	C1144	C	0.732861	0.347750	0.859516
	C1145	C	0.733454	0.350910	0.870334
	C1146	C	0.736048	0.343350	0.878758
	C1147	C	0.738029	0.332911	0.876616
	C1148	C	0.737374	0.330118	0.865671
	C1149	C	0.740792	0.325013	0.885767
	C1150	C	0.748258	0.317186	0.886081
	C1151	C	0.750872	0.309914	0.894687
	C1152	C	0.746219	0.310043	0.903471
	C1153	C	0.738643	0.317777	0.903070
	C1154	C	0.736019	0.325064	0.894470
	C1155	C	0.731456	0.362035	0.872754
	C1156	C	0.737153	0.366986	0.882443
	C1157	C	0.735427	0.377428	0.884519
	C1158	C	0.727971	0.383526	0.877036
	C1159	C	0.722117	0.378517	0.867464
	C1160	C	0.723817	0.368068	0.865382
	H1161	H	0.730858	0.353491	0.852919
	H1162	H	0.738913	0.322098	0.863901
	H1163	H	0.736555	0.345637	0.887165
	H1164	H	0.752254	0.316913	0.879619
	H1165	H	0.729970	0.330772	0.894366
	H1166	H	0.756682	0.303926	0.894822
	H1167	H	0.734534	0.317906	0.909422
	H1168	H	0.738587	0.343818	0.821488
	H1169	H	0.740268	0.348783	0.840838
	H1170	H	0.726271	0.314185	0.827264
	H1171	H	0.727639	0.319048	0.846465
	H1172	H	0.718967	0.364454	0.857992
	H1173	H	0.715947	0.382809	0.861733
	H1174	H	0.739922	0.381160	0.892027
	H1175	H	0.743209	0.362688	0.888338
	C1176	C	0.731648	0.326072	0.810816
	O1177	O	0.731630	0.333094	0.803898
	C1178	C	0.730902	0.315224	0.807450
	C1179	C	0.728963	0.311945	0.796608
	H1180	H	0.732793	0.309213	0.813800
	N1181	N	0.726501	0.318019	0.787410
	H1182	H	0.729269	0.303619	0.795039
	H1183	H	0.724842	0.325652	0.789235
	C1184	C	0.749493	0.301870	0.912724
	O1185	O	0.754324	0.293806	0.911572
	C1186	C	0.746978	0.303744	0.923085
	C1187	C	0.748995	0.296847	0.931940
	H1188	H	0.743882	0.311311	0.924425
	N1189	N	0.753042	0.287092	0.932452
	H1190	H	0.747123	0.299358	0.939433
	H1191	H	0.753507	0.284574	0.924736
	C1192	C	0.726556	0.395026	0.879624
	O1193	O	0.729658	0.398517	0.889172
	C1194	C	0.721702	0.401957	0.870522
	C1195	C	0.719327	0.412369	0.871547
	H1196	H	0.720483	0.399103	0.862162
	N1197	N	0.720275	0.417810	0.880968
	H1198	H	0.716254	0.416848	0.863995
	H1199	H	0.723983	0.413442	0.887931
	C1200	C	0.106650	0.771918	0.558473
	C1201	C	0.114461	0.766945	0.554732
	C1202	C	0.125057	0.768910	0.559479
	C1203	C	0.128442	0.775956	0.568228
	C1204	C	0.120632	0.780989	0.571915
	C1205	C	0.110054	0.779037	0.567140
	C1206	C	0.139798	0.778068	0.573339
	C1207	C	0.143650	0.779568	0.584762
	C1208	C	0.154250	0.781632	0.589735
	C1209	C	0.161060	0.782187	0.582928
	C1210	C	0.157567	0.780715	0.571469
	C1211	C	0.146899	0.778662	0.566857
	C1212	C	0.165002	0.781355	0.564400
	C1213	C	0.162027	0.785670	0.553717
	C1214	C	0.169002	0.786313	0.547194
	C1215	C	0.179342	0.782749	0.550967
	C1216	C	0.182284	0.778317	0.561591
	C1217	C	0.175309	0.777646	0.568122
	C1218	C	0.158177	0.783213	0.601931
	C1219	C	0.165847	0.790705	0.606427
	C1220	C	0.169476	0.792164	0.617795
	C1221	C	0.165657	0.786267	0.625319
	C1222	C	0.158069	0.778698	0.620826
	C1223	C	0.154413	0.777233	0.609449
	H1224	H	0.138280	0.779136	0.589892
	H1225	H	0.144047	0.777521	0.558027
	H1226	H	0.169259	0.783811	0.586644
	H1227	H	0.154200	0.788779	0.550527
	H1228	H	0.177842	0.773946	0.576180
	H1229	H	0.166585	0.789679	0.538955
	H1230	H	0.190056	0.775073	0.564636
	H1231	H	0.104121	0.783073	0.570034
	H1232	H	0.122854	0.786700	0.578457
	H1233	H	0.112219	0.761630	0.547846
	H1234	H	0.130835	0.764772	0.556449
	H1235	H	0.148703	0.771156	0.606332
	H1236	H	0.155200	0.773690	0.626333
	H1237	H	0.175409	0.797995	0.621134
	H1238	H	0.168877	0.795613	0.600941
	C1239	C	0.094879	0.770209	0.553589
	O1240	O	0.088316	0.776198	0.555750
	C1241	C	0.091365	0.761389	0.546349
	C1242	C	0.081044	0.759452	0.540713
	H1243	H	0.096992	0.755471	0.545688
	N1244	N	0.072618	0.765531	0.540359
	H1245	H	0.079322	0.752372	0.535823
	H1246	H	0.074784	0.772751	0.544042
	C1247	C	0.186663	0.783706	0.543437
	O1248	O	0.183239	0.785054	0.533283
	C1249	C	0.197850	0.783140	0.548417
	C1250	C	0.205346	0.783144	0.542592
	H1251	H	0.200718	0.783467	0.557342
	N1252	N	0.203734	0.782937	0.531490
	H1253	H	0.213528	0.783235	0.547273
	H1254	H	0.195914	0.781495	0.527468
	C1255	C	0.170022	0.788236	0.637722
	O1256	O	0.178178	0.793379	0.641421
	C1257	C	0.164389	0.784077	0.645227
	C1258	C	0.167960	0.784259	0.656640
	H1259	H	0.156517	0.781142	0.641821
	N1260	N	0.177367	0.787651	0.662841
	H1261	H	0.162794	0.781294	0.661368
	H1262	H	0.181598	0.791392	0.658057
	C1263	C	0.285737	0.663558	0.162761
	C1264	C	0.289377	0.653654	0.160813
	C1265	C	0.285412	0.648513	0.150808
	C1266	C	0.277654	0.653023	0.142149
	C1267	C	0.274143	0.663005	0.144012
	C1268	C	0.278097	0.668112	0.154031
	C1269	C	0.273395	0.647464	0.131451
	C1270	C	0.271226	0.652860	0.121342
	C1271	C	0.267252	0.647774	0.111220
	C1272	C	0.265394	0.636981	0.111413
	C1273	C	0.267430	0.631271	0.121332
	C1274	C	0.271452	0.636678	0.131247
	C1275	C	0.265406	0.619765	0.121397
	C1276	C	0.261672	0.615041	0.129703
	C1277	C	0.259899	0.604313	0.129849
	C1278	C	0.261638	0.597696	0.121672
	C1279	C	0.265401	0.602405	0.113380
	C1280	C	0.267224	0.613142	0.113245
	C1281	C	0.265096	0.653699	0.100546
	C1282	C	0.256380	0.651493	0.091687
	C1283	C	0.254419	0.657055	0.081768
	C1284	C	0.261079	0.665049	0.080073
	C1285	C	0.269724	0.667333	0.088984
	C1286	C	0.271686	0.661800	0.098926
	H1287	H	0.272660	0.661197	0.121370
	H1288	H	0.273106	0.632411	0.138994
	H1289	H	0.262293	0.632949	0.103673
	H1290	H	0.259948	0.619848	0.136057
	H1291	H	0.270370	0.616420	0.106838
	H1292	H	0.256974	0.600796	0.136313
	H1293	H	0.267212	0.597532	0.107141
	H1294	H	0.275228	0.675792	0.155370
	H1295	H	0.268069	0.666740	0.137608
	H1296	H	0.295529	0.649980	0.167146
	H1297	H	0.288558	0.640943	0.149581
	H1298	H	0.278571	0.663694	0.105513
	H1299	H	0.274925	0.673627	0.088191
	H1300	H	0.247630	0.655261	0.075006
	H1301	H	0.250920	0.645486	0.092647
	C1302	C	0.289692	0.669575	0.173597
	O1303	O	0.287753	0.679035	0.174235
	C1304	C	0.295726	0.664010	0.183305
	C1305	C	0.300590	0.668583	0.193328
	H1306	H	0.296141	0.655558	0.183055
	N1307	N	0.301041	0.678867	0.195891
	H1308	H	0.304624	0.663476	0.200074
	H1309	H	0.296078	0.683293	0.189678
	C1310	C	0.259607	0.585958	0.122396
	O1311	O	0.258712	0.581828	0.131099
	C1312	C	0.258663	0.579594	0.112677
	C1313	C	0.257768	0.568804	0.112505
	H1314	H	0.257841	0.583459	0.104786
	N1315	N	0.258400	0.562341	0.121235
	H1316	H	0.256508	0.564867	0.104615
	H1317	H	0.260968	0.566282	0.128698
	C1318	C	0.258496	0.670845	0.068954
	O1319	O	0.249755	0.670079	0.062173
	C1320	C	0.266494	0.677334	0.066350
	C1321	C	0.264970	0.683747	0.057138
	H1322	H	0.274445	0.676808	0.071556
	N1323	N	0.255906	0.685592	0.049307
	H1324	H	0.271690	0.688008	0.055969
	H1325	H	0.249533	0.682265	0.051416
	C1326	C	0.799833	0.801966	0.243054
	C1327	C	0.803132	0.795260	0.253183
	C1328	C	0.805757	0.798167	0.264223
	H1329	H	0.805642	0.806218	0.266772
	C1330	C	0.808564	0.789973	0.271748
	C1331	C	0.811819	0.790280	0.284094
	C1332	C	0.808748	0.779608	0.268470
	C1333	C	0.812139	0.772921	0.278612
	C1334	C	0.806105	0.776701	0.257427
	H1335	H	0.806229	0.768651	0.254878
	C1336	C	0.803293	0.784895	0.249899
	C1337	C	0.800058	0.784608	0.237548
	N1338	N	0.813864	0.779807	0.287686
	N1339	N	0.798115	0.795099	0.233966
	O1340	O	0.813221	0.763566	0.279133
	O1341	O	0.812638	0.797830	0.289946
	O1342	O	0.799205	0.777058	0.231692
	O1343	O	0.798825	0.811330	0.242560
	C1344	C	0.817308	0.776616	0.299064
	C1345	C	0.794926	0.798388	0.222603
	C1346	C	0.824670	0.768636	0.302362
	C1347	C	0.828054	0.765595	0.313413
	H1348	H	0.827769	0.764735	0.296325
	C1349	C	0.824212	0.770456	0.321497
	H1350	H	0.833530	0.759181	0.315754
	C1351	C	0.816701	0.778354	0.318044
	C1352	C	0.813339	0.781441	0.307015
	H1353	H	0.813607	0.782166	0.324176
	H1354	H	0.807536	0.787543	0.304626
	C1355	C	0.798789	0.793388	0.214673
	C1356	C	0.795750	0.796664	0.203688
	H1357	H	0.804276	0.787009	0.217036
	C1358	C	0.788848	0.805081	0.200297
	H1359	H	0.798841	0.792783	0.197592
	C1360	C	0.784880	0.809917	0.208302
	C1361	C	0.787875	0.806632	0.219290
	H1362	H	0.779209	0.816155	0.205853
	H1363	H	0.784653	0.810503	0.225252
	C1364	C	0.734156	0.726620	-0.023734
	C1365	C	0.739275	0.733625	-0.014354
	C1366	C	0.735625	0.742896	-0.011045
	H1367	H	0.728122	0.746226	-0.015288
	C1368	C	0.742326	0.747577	-0.001885
	C1369	C	0.740905	0.757467	0.003818
	C1370	C	0.751992	0.743296	0.003575
	C1371	C	0.757074	0.750282	0.012994
	C1372	C	0.755649	0.734031	0.000254
	H1373	H	0.763153	0.730702	0.004498
	C1374	C	0.748951	0.729350	-0.008909
	C1375	C	0.750359	0.719458	-0.014626
	N1376	N	0.750018	0.758629	0.012671
	N1377	N	0.741205	0.718276	-0.023427
	O1378	O	0.765448	0.749149	0.019626
	O1379	O	0.733557	0.763362	0.001465
	O1380	O	0.757713	0.713570	-0.012324
	O1381	O	0.725750	0.727722	-0.030320
	C1382	C	0.751855	0.767153	0.020337
	C1383	C	0.739301	0.709739	-0.031070
	C1384	C	0.761871	0.771341	0.024357
	C1385	C	0.763625	0.779589	0.031801
	H1386	H	0.768345	0.768207	0.021699
	C1387	C	0.755465	0.783880	0.035515
	H1388	H	0.771442	0.782757	0.034922
	C1389	C	0.745416	0.779694	0.031300
	C1390	C	0.743635	0.771453	0.023838
	H1391	H	0.738862	0.783091	0.033636
	H1392	H	0.735812	0.768356	0.020822
	C1393	C	0.747412	0.705542	-0.034828
	C1394	C	0.745503	0.697316	-0.042304
	H1395	H	0.755216	0.708737	-0.032041
	C1396	C	0.735445	0.693075	-0.046312
	H1397	H	0.751838	0.694133	-0.045221
	C1398	C	0.727410	0.697233	-0.042309
	C1399	C	0.729297	0.705454	-0.034822
	H1400	H	0.719655	0.693852	-0.044872
	H1401	H	0.722945	0.708478	-0.031879
	C1402	C	0.715831	0.509362	0.879322
	C1403	C	0.718579	0.498065	0.881446
	C1404	C	0.712331	0.489282	0.878320
	H1405	H	0.704174	0.489805	0.873765
	C1406	C	0.717349	0.479774	0.881416
	C1407	C	0.713094	0.468925	0.879319
	C1408	C	0.727865	0.479100	0.887229
	C1409	C	0.730731	0.467797	0.888949
	C1410	C	0.734095	0.487884	0.890430
	H1411	H	0.742266	0.487358	0.894938
	C1412	C	0.729079	0.497391	0.887337
	C1413	C	0.733393	0.508234	0.889259
	N1414	N	0.721543	0.462108	0.883944
	N1415	N	0.725074	0.515022	0.884156
	O1416	O	0.739136	0.464135	0.893576
	O1417	O	0.704278	0.466359	0.874661
	O1418	O	0.742143	0.510835	0.894112
	O1419	O	0.707497	0.513065	0.874514
	C1420	C	0.721004	0.450902	0.883262
	C1421	C	0.726027	0.526173	0.883554
	C1422	C	0.726880	0.444667	0.891857
	C1423	C	0.726504	0.433816	0.891050
	H1424	H	0.731799	0.448221	0.899211
	C1425	C	0.720294	0.428839	0.881635
	H1426	H	0.731194	0.429046	0.897716
	C1427	C	0.714245	0.435180	0.873172
	C1428	C	0.714619	0.446036	0.873950
	H1429	H	0.709030	0.431602	0.865991
	H1430	H	0.709976	0.450671	0.867186
	C1431	C	0.731909	0.531784	0.892599
	C1432	C	0.732892	0.542597	0.891951
	H1433	H	0.735713	0.527737	0.900186
	C1434	C	0.728082	0.548103	0.882233
	H1435	H	0.737737	0.546775	0.898943
	C1436	C	0.722290	0.542347	0.873168
	C1437	C	0.721230	0.531554	0.873817
	H1438	H	0.718535	0.546476	0.865581
	H1439	H	0.716687	0.527348	0.866705
	C1440	C	-0.009268	0.766201	0.475271
	C1441	C	0.000369	0.763805	0.484310
	C1442	C	0.009765	0.769253	0.487415
	H1443	H	0.011145	0.776317	0.483235
	C1444	C	0.017251	0.764970	0.496297
	C1445	C	0.028048	0.768781	0.501776
	C1446	C	0.015479	0.755870	0.501675
	C1447	C	0.025083	0.753547	0.510791
	C1448	C	0.006085	0.750418	0.498562
	H1449	H	0.004697	0.743368	0.502758
	C1450	C	-0.001410	0.754710	0.489691
	C1451	C	-0.012261	0.750983	0.484294
	N1452	N	0.032295	0.761611	0.510427
	N1453	N	-0.016549	0.758236	0.475738
	O1454	O	0.026532	0.746336	0.517238
	O1455	O	0.032400	0.776379	0.499419
	O1456	O	-0.016621	0.743389	0.486648
	O1457	O	-0.010682	0.773386	0.468792
	C1458	C	0.042519	0.762519	0.517969
	C1459	C	-0.026979	0.757667	0.468570
	C1460	C	0.048575	0.753646	0.521709
	C1461	C	0.058474	0.754551	0.529059
	H1462	H	0.045576	0.745985	0.518957
	C1463	C	0.062638	0.764347	0.532851
	H1464	H	0.062889	0.747543	0.532132
	C1465	C	0.056412	0.773186	0.529134
	C1466	C	0.046535	0.772310	0.521763
	H1467	H	0.059464	0.780824	0.532043
	H1468	H	0.041931	0.779276	0.519107
	C1469	C	-0.031476	0.748024	0.464875
	C1470	C	-0.041606	0.747474	0.457956
	H1471	H	-0.027036	0.740912	0.467234
	C1472	C	-0.047567	0.756533	0.454567
	H1473	H	-0.044823	0.739942	0.454919
	C1474	C	-0.042904	0.766180	0.458223
	C1475	C	-0.032794	0.766752	0.465160
	H1476	H	-0.047360	0.773278	0.455612
	H1477	H	-0.029479	0.774309	0.467887
	C1478	C	0.274045	0.764469	0.494738
	C1479	C	0.263710	0.766886	0.496791
	C1480	C	0.261241	0.768180	0.506770
	H1481	H	0.267021	0.767485	0.514664
	C1482	C	0.250801	0.770427	0.505862
	C1483	C	0.245500	0.772257	0.514786
	C1484	C	0.243358	0.771329	0.495698
	C1485	C	0.233047	0.773842	0.497770
	C1486	C	0.245823	0.770006	0.485718
	H1487	H	0.240042	0.770701	0.477824
	C1488	C	0.256260	0.767737	0.486624
	C1489	C	0.261568	0.765851	0.477707
	N1490	N	0.234877	0.774296	0.509381
	N1491	N	0.272212	0.763950	0.483137
	O1492	O	0.224790	0.775277	0.491031
	O1493	O	0.249355	0.772044	0.524629
	O1494	O	0.257724	0.765921	0.467863
	O1495	O	0.282332	0.763166	0.501472
	C1496	C	0.227008	0.776541	0.514971
	C1497	C	0.280125	0.761751	0.477606
	C1498	C	0.216755	0.773002	0.510771
	C1499	C	0.209159	0.775210	0.516217
	H1500	H	0.214632	0.768514	0.503243
	C1501	C	0.211582	0.780897	0.526085
	H1502	H	0.201212	0.772440	0.512891
	C1503	C	0.221878	0.784500	0.530158
	C1504	C	0.229479	0.782349	0.524699
	H1505	H	0.223881	0.789287	0.537503
	H1506	H	0.237300	0.785376	0.527974
	C1507	C	0.277920	0.755386	0.468284
	C1508	C	0.285645	0.753185	0.463008
	H1509	H	0.270221	0.752017	0.465195
	C1510	C	0.295745	0.757384	0.466772
	H1511	H	0.283879	0.748230	0.455773
	C1512	C	0.297873	0.763713	0.476186
	C1513	C	0.290180	0.765878	0.481520
	H1514	H	0.305712	0.766703	0.479570
	H1515	H	0.292067	0.770745	0.488783
	C1516	C	0.313283	0.705672	0.242191
	C1517	C	0.316902	0.706195	0.254524
	C1518	C	0.318480	0.714889	0.261351
	H1519	H	0.317108	0.722782	0.258148
	C1520	C	0.321980	0.712702	0.272591
	C1521	C	0.324503	0.720059	0.282151
	C1522	C	0.323784	0.702537	0.276705
	C1523	C	0.327529	0.703032	0.289022
	C1524	C	0.322184	0.693842	0.269886
	H1525	H	0.323571	0.685950	0.273087
	C1526	C	0.318685	0.696034	0.258650
	C1527	C	0.316232	0.688661	0.249120
	N1528	N	0.327832	0.713757	0.291745
	N1529	N	0.313083	0.694939	0.239493
	O1530	O	0.329844	0.695851	0.295467
	O1531	O	0.323923	0.729460	0.281912
	O1532	O	0.316765	0.679256	0.249410
	O1533	O	0.311026	0.712840	0.235725
	C1534	C	0.331220	0.717707	0.302804
	C1535	C	0.310106	0.690908	0.228446
	C1536	C	0.339612	0.713067	0.310526
	C1537	C	0.342897	0.716880	0.321250
	H1538	H	0.343624	0.706471	0.308218
	C1539	C	0.337861	0.725373	0.324628
	H1540	H	0.349377	0.713181	0.327217
	C1541	C	0.329532	0.730053	0.316754
	C1542	C	0.326255	0.726282	0.305998
	H1543	H	0.325756	0.736874	0.318993
	H1544	H	0.319770	0.730007	0.300130
	C1545	C	0.315210	0.682220	0.225679
	C1546	C	0.312305	0.678248	0.214998
	H1547	H	0.321584	0.678604	0.231794
	C1548	C	0.304187	0.682805	0.206767
	H1549	H	0.316566	0.671694	0.212944
	C1550	C	0.299238	0.691633	0.209603
	C1551	C	0.302100	0.695599	0.220287
	H1552	H	0.292995	0.695306	0.203317
	H1553	H	0.298053	0.702349	0.222217
	C1554	C	0.842065	0.764770	0.369967
	C1555	C	0.850892	0.758350	0.373658
	C1556	C	0.855646	0.756806	0.384882
	C1557	C	0.851790	0.761520	0.393045
	C1558	C	0.842862	0.767800	0.389363
	C1559	C	0.838141	0.769349	0.378145
	C1560	C	0.856914	0.759884	0.405075
	C1561	C	0.850939	0.758659	0.412667
	C1562	C	0.855587	0.757133	0.423987
	C1563	C	0.866547	0.756864	0.427642
	C1564	C	0.872834	0.758052	0.420347
	C1565	C	0.867847	0.759543	0.409095
	C1566	C	0.884507	0.757786	0.424440
	C1567	C	0.890816	0.764440	0.420056
	C1568	C	0.901688	0.764215	0.423910
	C1569	C	0.906899	0.757285	0.432266
	C1570	C	0.900582	0.750712	0.436731
	C1571	C	0.889695	0.750944	0.432910
	C1572	C	0.849060	0.755848	0.431935
	C1573	C	0.852027	0.760264	0.442509
	C1574	C	0.845930	0.759055	0.449896
	C1575	C	0.836592	0.753297	0.447217
	C1576	C	0.833563	0.748992	0.436591
	C1577	C	0.839635	0.750221	0.429169
	H1578	H	0.842489	0.758924	0.409695
	H1579	H	0.872573	0.760484	0.403343
	H1580	H	0.870262	0.755726	0.436360
	H1581	H	0.887160	0.770050	0.413703
	H1582	H	0.885125	0.745594	0.436453
	H1583	H	0.906442	0.769438	0.420441
	H1584	H	0.904225	0.745425	0.443392
	H1585	H	0.831294	0.774305	0.375443
	H1586	H	0.839685	0.771713	0.395364
	H1587	H	0.853985	0.754360	0.367665
	H1588	H	0.862348	0.751650	0.387381
	H1589	H	0.837099	0.746598	0.421120
	H1590	H	0.826277	0.744732	0.434031
	H1591	H	0.848336	0.762538	0.458035
	H1592	H	0.859101	0.764912	0.444913
	C1593	C	0.836520	0.766871	0.357778
	O1594	O	0.827649	0.770884	0.354908
	C1595	C	0.841848	0.764219	0.349485
	C1596	C	0.837481	0.764884	0.338180
	H1597	H	0.850043	0.762067	0.352146
	N1598	N	0.827552	0.767570	0.332774
	H1599	H	0.842429	0.763017	0.332821
	H1600	H	0.823455	0.770367	0.338156
	C1601	C	0.918882	0.757485	0.436110
	O1602	O	0.923996	0.764752	0.433452
	C1603	C	0.924325	0.748993	0.442973
	C1604	C	0.935010	0.748680	0.447807
	H1605	H	0.919967	0.742056	0.443986
	N1606	N	0.942120	0.756231	0.447600
	H1607	H	0.938237	0.741722	0.452495
	H1608	H	0.938539	0.763152	0.444155
	C1609	C	0.830299	0.752241	0.455767
	O1610	O	0.832141	0.757862	0.464123
	C1611	C	0.822066	0.744462	0.454044
	C1612	C	0.815287	0.743218	0.460630
	H1613	H	0.821431	0.738732	0.447584
	N1614	N	0.814631	0.749192	0.469272
	H1615	H	0.809661	0.736856	0.458706
	H1616	H	0.819275	0.755854	0.469972
	C1617	C	0.707665	0.659678	0.833434
	C1618	C	0.703289	0.650166	0.835590
	C1619	C	0.706499	0.645260	0.845890
	C1620	C	0.714195	0.649633	0.854646
	C1621	C	0.718439	0.659237	0.852565
	C1622	C	0.715241	0.664105	0.842255
	C1623	C	0.717667	0.644322	0.865657
	C1624	C	0.719688	0.650051	0.875481
	C1625	C	0.722965	0.645209	0.885888
	C1626	C	0.724264	0.634318	0.886285
	C1627	C	0.722346	0.628274	0.876672
	C1628	C	0.719028	0.633449	0.866449
	C1629	C	0.723808	0.616671	0.877264
	C1630	C	0.727676	0.611307	0.869488
	C1631	C	0.729018	0.600502	0.870017
	C1632	C	0.726640	0.594433	0.878353
	C1633	C	0.722706	0.599776	0.886088
	C1634	C	0.721337	0.610594	0.885560
	C1635	C	0.725001	0.651482	0.896251
	C1636	C	0.733304	0.649129	0.905517
	C1637	C	0.735156	0.654999	0.915153
	C1638	C	0.728786	0.663473	0.916145
	C1639	C	0.720565	0.665901	0.906826
	C1640	C	0.718716	0.660059	0.897164
	H1641	H	0.718698	0.658457	0.874999
	H1642	H	0.717479	0.628932	0.858925
	H1643	H	0.726835	0.630473	0.894256
	H1644	H	0.729875	0.615665	0.863038
	H1645	H	0.718046	0.614375	0.891551
	H1646	H	0.732013	0.596479	0.863933
	H1647	H	0.720402	0.595343	0.892407
	H1648	H	0.718681	0.671483	0.840759
	H1649	H	0.724496	0.662845	0.859042
	H1650	H	0.697162	0.646615	0.829179
	H1651	H	0.702805	0.637999	0.847259
	H1652	H	0.712152	0.662089	0.890240
	H1653	H	0.715617	0.672546	0.907077
	H1654	H	0.741623	0.653081	0.922237
	H1655	H	0.738537	0.642746	0.905106
	C1656	C	0.704599	0.665426	0.822283
	O1657	O	0.707304	0.674639	0.821347
	C1658	C	0.698527	0.659904	0.812632
	C1659	C	0.694587	0.664315	0.802256
	H1660	H	0.697269	0.651578	0.813261
	N1661	N	0.695273	0.674401	0.799193
	H1662	H	0.690380	0.659242	0.795629
	H1663	H	0.700367	0.678666	0.805395
	C1664	C	0.728266	0.582581	0.878420
	O1665	O	0.729246	0.577910	0.870092
	C1666	C	0.728778	0.576769	0.888493
	C1667	C	0.729518	0.565990	0.889453
	H1668	H	0.729411	0.581063	0.896054
	N1669	N	0.729083	0.559041	0.881263
	H1670	H	0.730475	0.562502	0.897576
	H1671	H	0.726746	0.562589	0.873510
	C1672	C	0.731228	0.669569	0.927000
	O1673	O	0.739717	0.668526	0.934161
	C1674	C	0.723396	0.676663	0.928911
	C1675	C	0.724862	0.683264	0.937885
	H1676	H	0.715581	0.676483	0.923356
	N1677	N	0.733757	0.684775	0.946042
	H1678	H	0.718258	0.687983	0.938553
	H1679	H	0.740121	0.681034	0.944377
	C1680	C	0.349669	0.734037	0.372802
	C1681	C	0.343865	0.741425	0.376869
	C1682	C	0.346190	0.743768	0.388095
	C1683	C	0.354499	0.738921	0.395863
	C1684	C	0.360377	0.731622	0.391778
	C1685	C	0.358030	0.729285	0.380570
	C1686	C	0.357055	0.741443	0.407896
	C1687	C	0.367486	0.742115	0.414254
	C1688	C	0.370115	0.744387	0.425569
	C1689	C	0.361945	0.745992	0.430509
	C1690	C	0.351398	0.745429	0.424474
	C1691	C	0.349137	0.743150	0.413170
	C1692	C	0.342838	0.747149	0.429964
	C1693	C	0.333499	0.741395	0.427036
	C1694	C	0.325590	0.742952	0.432249
	C1695	C	0.326487	0.750378	0.440612
	C1696	C	0.335866	0.756066	0.443602
	C1697	C	0.343794	0.754518	0.438402
	C1698	C	0.381301	0.745038	0.432163
	C1699	C	0.384639	0.741136	0.443001
	C1700	C	0.395083	0.741704	0.449090
	C1701	C	0.402760	0.746290	0.444773
	C1702	C	0.399437	0.750091	0.433895
	C1703	C	0.388998	0.749498	0.427772
	H1704	H	0.373694	0.740817	0.410311
	H1705	H	0.341047	0.742668	0.408371
	H1706	H	0.363857	0.747691	0.439253
	H1707	H	0.332492	0.735425	0.420764
	H1708	H	0.350816	0.759240	0.440837
	H1709	H	0.318437	0.738400	0.429897
	H1710	H	0.337052	0.761711	0.450182
	H1711	H	0.362618	0.723565	0.377572
	H1712	H	0.366761	0.727549	0.397483
	H1713	H	0.337553	0.745531	0.371139
	H1714	H	0.341631	0.749658	0.390870
	H1715	H	0.386738	0.752700	0.419465
	H1716	H	0.405139	0.753422	0.430114
	H1717	H	0.397543	0.738617	0.457448
	H1718	H	0.379024	0.737380	0.446638
	C1719	C	0.347561	0.731065	0.360606
	O1720	O	0.354104	0.726095	0.357172
	C1721	C	0.337676	0.734027	0.352991
	C1722	C	0.335141	0.732666	0.341655
	H1723	H	0.331491	0.736953	0.356309
	N1724	N	0.341399	0.729040	0.335584
	H1725	H	0.327293	0.734772	0.336861
	H1726	H	0.348448	0.726191	0.340544
	C1727	C	0.317507	0.751612	0.446051
	O1728	O	0.310117	0.745273	0.444324
	C1729	C	0.317688	0.760368	0.453368
	C1730	C	0.310970	0.761625	0.460002
	H1731	H	0.323116	0.766719	0.453423
	N1732	N	0.303447	0.754954	0.461294
	H1733	H	0.311776	0.768655	0.464974
	H1734	H	0.302063	0.749039	0.455433
	C1735	C	0.414116	0.746667	0.451881
	O1736	O	0.417142	0.741323	0.460465
	C1737	C	0.421421	0.753487	0.448458
	C1738	C	0.432139	0.753544	0.453088
	H1739	H	0.418340	0.759456	0.442283
	N1740	N	0.437802	0.746997	0.460941
	H1741	H	0.436734	0.759316	0.450057
	H1742	H	0.433038	0.742360	0.464395
	C1743	C	0.748209	0.740217	0.514210
	C1744	C	0.755664	0.743637	0.507814
	C1745	C	0.764328	0.738454	0.506208
	H1746	H	0.766744	0.730831	0.509750
	C1747	C	0.769653	0.743776	0.499706
	C1748	C	0.779147	0.740532	0.496300
	C1749	C	0.766547	0.753595	0.495152
	C1750	C	0.773930	0.756962	0.488650
	C1751	C	0.757894	0.758787	0.496775
	H1752	H	0.755472	0.766406	0.493224
	C1753	C	0.752563	0.753460	0.503267
	C1754	C	0.743012	0.756664	0.506590
	N1755	N	0.781285	0.748775	0.489669
	N1756	N	0.740804	0.748366	0.513113
	O1757	O	0.773758	0.764965	0.483497
	O1758	O	0.784086	0.732559	0.498646
	O1759	O	0.738071	0.764635	0.504247
	O1760	O	0.748360	0.732202	0.519341
	C1761	C	0.789759	0.748805	0.484566
	C1762	C	0.732083	0.748161	0.517843
	C1763	C	0.795169	0.758024	0.483785
	C1764	C	0.803343	0.758040	0.478784
	H1765	H	0.793046	0.765224	0.487077
	C1766	C	0.806322	0.748891	0.474332
	H1767	H	0.807467	0.765249	0.478166
	C1768	C	0.800937	0.739651	0.475330
	C1769	C	0.792771	0.739605	0.480353
	H1770	H	0.803328	0.732367	0.472409
	H1771	H	0.788721	0.732370	0.480902
	C1772	C	0.728809	0.757252	0.522014
	C1773	C	0.720325	0.757014	0.526552
	H1774	H	0.732913	0.764527	0.521837
	C1775	C	0.714879	0.747705	0.527121
	H1776	H	0.717849	0.764108	0.529797
	C1777	C	0.718177	0.738654	0.522790
	C1778	C	0.726650	0.738871	0.518226
	H1779	H	0.713909	0.731422	0.522703
	H1780	H	0.728958	0.731774	0.514902
	C1781	C	0.688653	0.703138	0.708885
	C1782	C	0.686887	0.699722	0.719648
	C1783	C	0.694172	0.697457	0.729610
	H1784	H	0.702517	0.698032	0.730650
	C1785	C	0.689950	0.694359	0.738125
	C1786	C	0.695426	0.691302	0.749747
	C1787	C	0.679204	0.693576	0.736772
	C1788	C	0.677431	0.689975	0.747470
	C1789	C	0.671919	0.695876	0.726823
	H1790	H	0.663574	0.695285	0.725778
	C1791	C	0.676142	0.698969	0.718308
	C1792	C	0.670661	0.701925	0.706663
	N1793	N	0.687471	0.688726	0.754880
	N1794	N	0.678608	0.704282	0.701443
	O1795	O	0.669195	0.688408	0.749531
	O1796	O	0.704709	0.691001	0.754022
	O1797	O	0.661372	0.702284	0.702432
	O1798	O	0.696890	0.704588	0.706792
	C1799	C	0.689358	0.685136	0.766093
	C1800	C	0.676712	0.707306	0.690047
	C1801	C	0.683141	0.677297	0.768830
	C1802	C	0.685013	0.673756	0.779689
	H1803	H	0.676791	0.673945	0.762515
	C1804	C	0.693167	0.677914	0.788126
	H1805	H	0.679908	0.667899	0.781706
	C1806	C	0.699250	0.685900	0.785293
	C1807	C	0.697430	0.689420	0.774435
	H1808	H	0.705555	0.689242	0.791724
	H1809	H	0.702252	0.695584	0.772520
	C1810	C	0.668432	0.702915	0.682021
	C1811	C	0.666575	0.705821	0.670965
	H1812	H	0.663495	0.697079	0.684321
	C1813	C	0.672910	0.713223	0.667590
	H1814	H	0.660311	0.702084	0.664834
	C1815	C	0.681285	0.717474	0.675711
	C1816	C	0.683134	0.714616	0.686778
	H1817	H	0.686306	0.723160	0.673239
	H1818	H	0.689602	0.718113	0.692829
	C1819	C	0.488942	0.750928	0.480110
	C1820	C	0.498569	0.752850	0.489297
	C1821	C	0.508997	0.752552	0.489142
	H1822	H	0.511354	0.750758	0.481759
	C1823	C	0.516172	0.754712	0.499175
	C1824	C	0.527854	0.755038	0.501945
	C1825	C	0.513139	0.756999	0.508690
	C1826	C	0.522782	0.758888	0.517879
	C1827	C	0.502709	0.757299	0.508842
	H1828	H	0.500350	0.759084	0.516228
	C1829	C	0.495530	0.755136	0.498810
	C1830	C	0.483844	0.754770	0.496030
	N1831	N	0.531326	0.757582	0.513280
	N1832	N	0.480389	0.752192	0.484700
	O1833	O	0.523330	0.761103	0.527321
	O1834	O	0.533341	0.753453	0.495884
	O1835	O	0.478343	0.756350	0.502076
	O1836	O	0.488414	0.748700	0.470675
	C1837	C	0.542123	0.758610	0.519320
	C1838	C	0.469617	0.750951	0.478658
	C1839	C	0.545592	0.755178	0.530264
	C1840	C	0.556077	0.756144	0.536065
	H1841	H	0.540148	0.751740	0.534312
	C1842	C	0.563440	0.760443	0.531094
	H1843	H	0.558706	0.753457	0.544563
	C1844	C	0.559824	0.764011	0.520155
	C1845	C	0.549336	0.763078	0.514340
	H1846	H	0.565221	0.767787	0.516246
	H1847	H	0.546774	0.765999	0.505958
	C1848	C	0.462477	0.746333	0.483633
	C1849	C	0.452060	0.745060	0.477723
	H1850	H	0.465028	0.743591	0.492082
	C1851	C	0.448420	0.748443	0.466714
	H1852	H	0.446562	0.741474	0.481654
	C1853	C	0.455686	0.753012	0.461794
	C1854	C	0.466119	0.754269	0.467676
	H1855	H	0.453237	0.755327	0.453182
	H1856	H	0.471525	0.757799	0.463637
	C1857	C	0.663239	0.730618	0.621845
	C1858	C	0.653868	0.727423	0.614388
	C1859	C	0.650998	0.730907	0.603452
	C1860	C	0.657379	0.737702	0.599323
	C1861	C	0.666828	0.740772	0.606721
	C1862	C	0.669663	0.737304	0.617658
	C1863	C	0.654271	0.741389	0.587580
	C1864	C	0.661653	0.742237	0.581453
	C1865	C	0.658871	0.745608	0.570403
	C1866	C	0.648367	0.748197	0.565521
	C1867	C	0.640725	0.747479	0.571337
	C1868	C	0.643857	0.744052	0.582360
	C1869	C	0.629566	0.750233	0.565932
	C1870	C	0.623332	0.755377	0.571678
	C1871	C	0.612934	0.757914	0.566604
	C1872	C	0.608175	0.755498	0.555522
	C1873	C	0.614381	0.750265	0.549809
	C1874	C	0.624789	0.747724	0.554868
	C1875	C	0.666820	0.746351	0.563953
	C1876	C	0.666646	0.754510	0.556394
	C1877	C	0.673971	0.755094	0.550278
	C1878	C	0.681821	0.747541	0.551263
	C1879	C	0.682105	0.739488	0.558971
	C1880	C	0.674804	0.738906	0.565132
	H1881	H	0.669726	0.740221	0.585374
	H1882	H	0.638067	0.743436	0.586983
	H1883	H	0.646090	0.750823	0.557000
	H1884	H	0.626721	0.757613	0.580191
	H1885	H	0.629233	0.743477	0.550223
	H1886	H	0.608220	0.761896	0.571163
	H1887	H	0.610919	0.747881	0.541378
	H1888	H	0.676962	0.739819	0.623296
	H1889	H	0.671943	0.746117	0.603934
	H1890	H	0.648827	0.721984	0.617123
	H1891	H	0.643776	0.728109	0.597915
	H1892	H	0.675183	0.732430	0.570826
	H1893	H	0.688195	0.733647	0.560270
	H1894	H	0.673709	0.761454	0.544459
	H1895	H	0.660809	0.760607	0.555430
	C1896	C	0.666818	0.727099	0.633962
	O1897	O	0.675968	0.728473	0.639654
	C1898	C	0.659284	0.722119	0.638839
	C1899	C	0.661651	0.717463	0.649191
	H1900	H	0.651065	0.722409	0.634407
	N1901	N	0.671196	0.716293	0.656421
	H1902	H	0.655223	0.714251	0.652020
	H1903	H	0.676888	0.720592	0.654014
	C1904	C	0.596693	0.758447	0.550442
	O1905	O	0.590834	0.760844	0.556296
	C1906	C	0.592667	0.758462	0.538516
	C1907	C	0.582285	0.760013	0.532845
	H1908	H	0.598148	0.757843	0.533523
	N1909	N	0.574051	0.761214	0.537167
	H1910	H	0.580298	0.760249	0.523873
	H1911	H	0.576146	0.759785	0.545644
	C1912	C	0.689485	0.748580	0.544104
	O1913	O	0.690187	0.756829	0.539033
	C1914	C	0.695916	0.739675	0.543130
	C1915	C	0.703296	0.739629	0.537156
	H1916	H	0.694565	0.732257	0.546722
	N1917	N	0.706275	0.747756	0.531745
	H1918	H	0.707365	0.732338	0.536750
	H1919	H	0.703208	0.754807	0.533532
