data_Molecule from CHK

_cell_length_a		67.341603
_cell_length_b		60.645566
_cell_length_c		64.335804
_cell_angle_alpha	75.889560
_cell_angle_beta	57.163533
_cell_angle_gamma	53.155012
_symmetry_space_group_name_H-M	'P 1'
_symmetry_Int_Tables_number		1

loop_
	_symmetry_equiv_pos_as_xyz
	x,y,z

loop_
	_atom_site_label
	_atom_site_type_symbol
	_atom_site_fract_x
	_atom_site_fract_y
	_atom_site_fract_z
	C0	C	0.079091	0.095380	0.482758
	C1	C	0.092208	0.107526	0.463253
	C2	C	0.109935	0.094874	0.438565
	H3	H	0.113848	0.075805	0.434730
	C4	C	0.122201	0.106947	0.418791
	C5	C	0.139096	0.094781	0.393703
	C6	C	0.116665	0.131871	0.423933
	H7	H	0.125799	0.141466	0.408758
	C8	C	0.098982	0.144795	0.448499
	C9	C	0.092703	0.170775	0.452781
	C10	C	0.086775	0.132533	0.468122
	H11	H	0.072773	0.142630	0.487039
	C12	C	0.086742	0.193933	0.453208
	C13	C	0.078813	0.221594	0.450327
	C14	C	0.151713	0.086026	0.372155
	C15	C	0.164589	0.077283	0.346876
	C16	C	0.067242	0.084563	0.497399
	C17	C	0.052621	0.071754	0.512103
	C18	C	0.052845	0.242280	0.450526
	C19	C	0.045419	0.269089	0.446600
	H20	H	0.038750	0.236959	0.453690
	C21	C	0.063496	0.276359	0.442395
	H22	H	0.025475	0.284831	0.446659
	C23	C	0.089250	0.255775	0.442510
	C24	C	0.096862	0.228853	0.446336
	H25	H	0.103287	0.261166	0.439373
	H26	H	0.116838	0.213119	0.446193
	C27	C	0.022258	0.087589	0.525434
	C28	C	0.007958	0.074941	0.538852
	H29	H	0.010158	0.109835	0.525022
	C30	C	0.023330	0.046036	0.539347
	H31	H	-0.015404	0.087271	0.548954
	C32	C	0.053650	0.030284	0.526284
	C33	C	0.068070	0.042851	0.512956
	H34	H	0.065763	0.008014	0.526600
	H35	H	0.091420	0.030480	0.502824
	C36	C	0.190375	0.050820	0.335252
	C37	C	0.202526	0.042391	0.310643
	H38	H	0.200594	0.037053	0.345804
	C39	C	0.189479	0.059980	0.296686
	H40	H	0.222308	0.021953	0.301938
	C41	C	0.163831	0.086441	0.308295
	C42	C	0.151583	0.094978	0.332882
	H43	H	0.153620	0.100151	0.297704
	H44	H	0.131765	0.115387	0.341581
	C45	C	0.055978	0.304480	0.437348
	N46	N	0.033890	0.322653	0.434917
	H47	H	0.070268	0.309360	0.434949
	C48	C	0.008248	0.032535	0.552264
	N49	N	-0.019438	0.046496	0.565547
	H50	H	0.021411	0.009829	0.549864
	C51	C	0.202134	0.050763	0.270871
	N52	N	0.190610	0.066238	0.257671
	H53	H	0.221919	0.029811	0.263036
	C54	C	-0.021608	0.492304	0.383287
	C55	C	-0.032312	0.518965	0.374937
	C56	C	-0.050866	0.528744	0.365954
	H57	H	-0.057080	0.516040	0.365661
	C58	C	-0.061421	0.554834	0.357341
	C59	C	-0.079408	0.564447	0.347425
	C60	C	-0.053443	0.571260	0.357991
	H61	H	-0.061461	0.591379	0.351308
	C62	C	-0.035020	0.561830	0.367022
	C63	C	-0.027000	0.578857	0.366988
	C64	C	-0.024482	0.535614	0.375467
	H65	H	-0.010100	0.528105	0.382264
	C66	C	-0.021416	0.595167	0.364929
	C67	C	-0.016653	0.616198	0.360132
	C68	C	-0.093563	0.573421	0.337620
	C69	C	-0.109181	0.585276	0.325010
	C70	C	-0.014152	0.469644	0.390392
	C71	C	-0.007866	0.443527	0.398933
	C72	C	0.006753	0.614140	0.337482
	C73	C	0.010355	0.635493	0.332086
	H74	H	0.021757	0.595808	0.324120
	C75	C	-0.009183	0.659675	0.349007
	H76	H	0.028185	0.633928	0.314477
	C77	C	-0.032156	0.661411	0.371865
	C78	C	-0.035876	0.640120	0.377368
	H79	H	-0.047298	0.679870	0.385121
	H80	H	-0.053872	0.641870	0.394884
	C81	C	0.013371	0.426984	0.405709
	C82	C	0.019184	0.401498	0.413982
	H83	H	0.025084	0.434403	0.404482
	C84	C	0.004074	0.391597	0.415813
	H85	H	0.035512	0.388865	0.419213
	C86	C	-0.017244	0.408236	0.409172
	C87	C	-0.023124	0.433692	0.400879
	H88	H	-0.029053	0.400876	0.410485
	H89	H	-0.039611	0.446378	0.395853
	C90	C	-0.100919	0.597910	0.303367
	C91	C	-0.116349	0.610015	0.291182
	H92	H	-0.082322	0.598081	0.296360
	C93	C	-0.140731	0.610211	0.300203
	H94	H	-0.109813	0.619723	0.274605
	C95	C	-0.148832	0.597436	0.321703
	C96	C	-0.133265	0.585013	0.333801
	H97	H	-0.167546	0.597427	0.328751
	H98	H	-0.139626	0.575090	0.350238
	C99	C	-0.006529	0.683000	0.342625
	N100	N	0.013420	0.682598	0.321410
	H101	H	-0.022879	0.701508	0.356333
	C102	C	0.010561	0.364442	0.423832
	N103	N	0.030900	0.347715	0.428801
	H104	H	-0.002260	0.358272	0.424939
	C105	C	-0.157117	0.623556	0.287421
	N106	N	-0.181506	0.627407	0.296570
	H107	H	-0.148098	0.630862	0.269619
	C108	C	0.248213	0.016487	0.103888
	C109	C	0.260235	-0.000394	0.082867
	C110	C	0.256261	0.011219	0.062624
	H111	H	0.244003	0.033524	0.062741
	C112	C	0.267941	-0.005875	0.042253
	C113	C	0.263384	0.006286	0.022021
	C114	C	0.283747	-0.034852	0.042224
	H115	H	0.292680	-0.048081	0.026639
	C116	C	0.287875	-0.046711	0.062364
	C117	C	0.303329	-0.075899	0.063240
	C118	C	0.276064	-0.029337	0.082551
	H119	H	0.279097	-0.038408	0.098163
	C120	C	0.314429	-0.099353	0.068595
	C121	C	0.324407	-0.123956	0.080026
	C122	C	0.258402	0.017721	0.005537
	C123	C	0.251408	0.032367	-0.012962
	C124	C	0.238528	0.028122	0.123217
	C125	C	0.227749	0.038692	0.147138
	C126	C	0.353620	-0.142244	0.073384
	C127	C	0.362586	-0.164977	0.086145
	H128	H	0.368968	-0.138101	0.058414
	C129	C	0.342793	-0.170288	0.105995
	H130	H	0.385020	-0.178659	0.081132
	C131	C	0.313798	-0.152424	0.112118
	C132	C	0.304720	-0.129706	0.099432
	H133	H	0.298404	-0.156425	0.127281
	H134	H	0.282228	-0.115897	0.104640
	C135	C	0.241949	0.022071	0.160525
	C136	C	0.231081	0.031837	0.184228
	H137	H	0.261442	0.001413	0.152153
	C138	C	0.205678	0.058510	0.195527
	H139	H	0.242053	0.018837	0.194442
	C140	C	0.191703	0.075206	0.182024
	C141	C	0.202467	0.065538	0.158296
	H142	H	0.172141	0.095823	0.190476
	H143	H	0.191387	0.078521	0.148178
	C144	C	0.227055	0.038983	-0.012191
	C145	C	0.219929	0.053779	-0.029982
	H146	H	0.213818	0.032471	0.002550
	C147	C	0.236748	0.062549	-0.049209
	H148	H	0.201096	0.058876	-0.029199
	C149	C	0.261178	0.055747	-0.050051
	C150	C	0.268410	0.040962	-0.032307
	H151	H	0.274370	0.062325	-0.064772
	H152	H	0.287203	0.035967	-0.033112
	C153	C	0.351782	-0.192984	0.120723
	N154	N	0.333523	-0.196912	0.139905
	H155	H	0.374483	-0.205967	0.115442
	C156	C	0.193775	0.068468	0.220849
	N157	N	0.205654	0.053317	0.233874
	H158	H	0.173914	0.089377	0.228651
	C159	C	0.228965	0.078634	-0.067731
	N160	N	0.206486	0.085691	-0.067274
	H161	H	0.242947	0.084859	-0.082142
	C162	C	-0.132696	0.987003	0.623907
	C163	C	-0.147717	0.979088	0.621885
	C164	C	-0.157412	0.963594	0.638998
	H165	H	-0.153371	0.957170	0.654292
	C166	C	-0.172015	0.956109	0.636150
	C167	C	-0.181730	0.940107	0.653046
	C168	C	-0.176702	0.964117	0.615951
	H169	H	-0.187705	0.958176	0.613589
	C170	C	-0.167006	0.979480	0.598679
	C171	C	-0.170878	0.987030	0.577760
	C172	C	-0.152617	0.986916	0.601838
	H173	H	-0.144985	0.998682	0.588519
	C174	C	-0.171553	0.992843	0.558663
	C175	C	-0.169324	0.998540	0.535001
	C176	C	-0.189806	0.925565	0.665309
	C177	C	-0.198283	0.907221	0.677101
	C178	C	-0.119388	0.995594	0.621452
	C179	C	-0.103840	1.007233	0.614471
	C180	C	-0.143511	0.980653	0.513385
	C181	C	-0.140925	0.986189	0.490150
	H182	H	-0.125596	0.962459	0.515088
	C183	C	-0.163891	1.009732	0.487499
	H184	H	-0.120972	0.972293	0.473633
	C185	C	-0.189680	1.027551	0.509100
	C186	C	-0.192400	1.022120	0.532425
	H187	H	-0.207559	1.045743	0.507341
	H188	H	-0.212339	1.036025	0.548912
	C189	C	-0.073446	0.990672	0.601004
	C190	C	-0.058417	1.002470	0.592988
	H191	H	-0.061859	0.968550	0.596879
	C192	C	-0.073053	1.031177	0.598005
	H193	H	-0.035034	0.989610	0.582500
	C194	C	-0.103406	1.047594	0.611899
	C195	C	-0.118551	1.035914	0.619999
	H196	H	-0.114970	1.069730	0.615961
	H197	H	-0.141916	1.048849	0.630366
	C198	C	-0.177426	0.878735	0.675399
	C199	C	-0.185439	0.860528	0.685928
	H200	H	-0.154966	0.871212	0.665687
	C201	C	-0.214510	0.869938	0.698471
	H202	H	-0.169132	0.838653	0.684314
	C203	C	-0.235357	0.898454	0.700532
	C204	C	-0.227475	0.916791	0.690102
	H205	H	-0.257823	0.905920	0.710341
	H206	H	-0.243767	0.938658	0.691702
	C207	C	-0.160950	1.015343	0.462852
	N208	N	-0.137464	0.999110	0.443049
	H209	H	-0.179514	1.033769	0.461799
	C210	C	-0.057376	1.044027	0.588087
	N211	N	-0.029665	1.029897	0.574816
	H212	H	-0.070231	1.066645	0.591675
	C213	C	-0.222337	0.850159	0.708172
	N214	N	-0.248089	0.857160	0.717544
	H215	H	-0.204934	0.828411	0.706309
	C216	C	-0.290639	0.716025	0.225887
	C217	C	-0.296245	0.725582	0.205947
	C218	C	-0.315131	0.723390	0.204600
	H219	H	-0.326408	0.715143	0.219358
	C220	C	-0.318973	0.731206	0.183955
	C221	C	-0.336662	0.727249	0.181871
	C222	C	-0.303754	0.741314	0.164584
	H223	H	-0.306240	0.746876	0.148442
	C224	C	-0.284799	0.743601	0.165705
	C225	C	-0.267564	0.751686	0.145322
	C226	C	-0.281229	0.735756	0.186465
	H227	H	-0.266285	0.737038	0.187234
	C228	C	-0.248877	0.753627	0.127384
	C229	C	-0.223129	0.749686	0.106258
	C230	C	-0.348658	0.720904	0.178346
	C231	C	-0.358964	0.710239	0.172196
	C232	C	-0.281545	0.705607	0.240054
	C233	C	-0.266467	0.691360	0.253202
	C234	C	-0.220800	0.756329	0.082810
	C235	C	-0.194717	0.750127	0.061923
	H236	H	-0.239514	0.765892	0.081179
	C237	C	-0.170067	0.737130	0.063659
	H238	H	-0.193010	0.754845	0.043894
	C239	C	-0.172682	0.731256	0.087228
	C240	C	-0.198657	0.737406	0.108146
	H241	H	-0.153754	0.721043	0.088731
	H242	H	-0.200139	0.732200	0.126060
	C243	C	-0.237082	0.680871	0.240980
	C244	C	-0.221876	0.666652	0.253366
	H245	H	-0.226406	0.684094	0.221740
	C246	C	-0.235298	0.662333	0.278385
	H247	H	-0.199309	0.658753	0.243806
	C248	C	-0.264634	0.672790	0.290578
	C249	C	-0.279993	0.687050	0.278264
	H250	H	-0.275254	0.669757	0.309908
	H251	H	-0.302571	0.695038	0.287850
	C252	C	-0.339516	0.684258	0.157728
	C253	C	-0.349123	0.673573	0.151429
	H254	H	-0.316833	0.672680	0.151483
	C255	C	-0.378464	0.687979	0.159334
	H256	H	-0.333906	0.653565	0.140218
	C257	C	-0.397856	0.714232	0.173632
	C258	C	-0.388328	0.725040	0.179988
	H259	H	-0.420558	0.726534	0.179598
	H260	H	-0.403466	0.745154	0.190955
	C261	C	-0.141896	0.728204	0.041368
	N262	N	-0.119364	0.716304	0.042943
	H263	H	-0.140355	0.730885	0.023229
	C264	C	-0.219147	0.647683	0.291418
	N265	N	-0.193337	0.640782	0.281371
	H266	H	-0.229988	0.643258	0.310313
	C267	C	-0.385251	0.674377	0.150797
	N268	N	-0.404975	0.673313	0.152890
	H269	H	-0.407494	0.689641	0.167737
	C270	C	0.018567	0.829543	0.258587
	C271	C	0.008683	0.856896	0.251762
	C272	C	0.012283	0.862343	0.227920
	H273	H	0.023350	0.845449	0.214470
	C274	C	0.001192	0.889530	0.221451
	C275	C	0.004110	0.894174	0.197460
	C276	C	-0.013649	0.911489	0.239120
	H277	H	-0.022530	0.932503	0.234365
	C278	C	-0.017397	0.906309	0.263072
	C279	C	-0.033429	0.928156	0.281803
	C280	C	-0.006144	0.878989	0.269210
	H281	H	-0.009312	0.874990	0.287742
	C282	C	-0.047892	0.943443	0.300676
	C283	C	-0.064917	0.956811	0.325259
	C284	C	0.006247	0.893941	0.177564
	C285	C	0.008049	0.888818	0.156003
	C286	C	0.023975	0.807004	0.265094
	C287	C	0.026587	0.781887	0.273267
	C288	C	-0.052252	0.949209	0.339704
	C289	C	-0.069082	0.960681	0.364307
	H290	H	-0.029184	0.933927	0.331471
	C291	C	-0.099152	0.980403	0.375626
	H292	H	-0.059179	0.954384	0.375390
	C293	C	-0.111717	0.988096	0.360956
	C294	C	-0.094961	0.976643	0.336320
	H295	H	-0.134903	1.002619	0.369104
	H296	H	-0.104970	0.982504	0.325442
	C297	C	0.006805	0.781710	0.297716
	C298	C	0.008217	0.757608	0.305383
	H299	H	-0.009826	0.800750	0.310430
	C300	C	0.029345	0.732786	0.289024
	H301	H	-0.007325	0.757747	0.324119
	C302	C	0.049463	0.732850	0.264782
	C303	C	0.048163	0.756908	0.257001
	H304	H	0.065923	0.713846	0.252018
	H305	H	0.063560	0.756778	0.238202
	C306	C	-0.016021	0.905434	0.152819
	C307	C	-0.014889	0.898779	0.132873
	H308	H	-0.035658	0.923228	0.166417
	C309	C	0.010218	0.875325	0.115395
	H310	H	-0.033710	0.911418	0.130880
	C311	C	0.034504	0.859291	0.118179
	C312	C	0.033513	0.865853	0.138061
	H313	H	0.054001	0.841289	0.104716
	H314	H	0.052236	0.853016	0.140190
	C315	C	-0.114767	0.989286	0.402150
	N316	N	-0.138505	1.007218	0.421299
	H317	H	-0.129328	1.008409	0.395356
	C318	C	0.029643	0.707837	0.296655
	N319	N	0.010801	0.707560	0.318393
	H320	H	0.046030	0.689411	0.282857
	C321	C	0.010402	0.866965	0.095742
	N322	N	0.032305	0.844508	0.080638
	H323	H	-0.009433	0.879916	0.094984
	C324	C	0.353367	-0.304520	0.261310
	C325	C	0.353679	-0.316672	0.283145
	C326	C	0.346858	-0.336157	0.292147
	H327	H	0.341929	-0.342377	0.282111
	C328	C	0.346031	-0.347394	0.314219
	C329	C	0.338007	-0.366314	0.323762
	C330	C	0.352166	-0.339009	0.327284
	H331	H	0.351349	-0.347450	0.344399
	C332	C	0.359025	-0.319543	0.318511
	C333	C	0.364309	-0.310479	0.332277
	C334	C	0.359749	-0.308477	0.296421
	H335	H	0.364759	-0.293278	0.289686
	C336	C	0.367266	-0.301726	0.344699
	C337	C	0.369099	-0.290426	0.360015
	C338	C	0.329104	-0.380727	0.333064
	C339	C	0.316269	-0.395491	0.345457
	C340	C	0.350913	-0.292222	0.244035
	C341	C	0.345395	-0.275346	0.225636
	C342	C	0.344315	-0.273275	0.382423
	C343	C	0.345962	-0.262111	0.397396
	H344	H	0.323848	-0.268847	0.387868
	C345	C	0.372309	-0.267557	0.390663
	H346	H	0.326777	-0.248928	0.414592
	C347	C	0.397043	-0.284700	0.368289
	C348	C	0.395533	-0.295943	0.353230
	H349	H	0.417497	-0.289096	0.362861
	H350	H	0.414735	-0.309104	0.336054
	C351	C	0.367488	-0.274734	0.203509
	C352	C	0.361483	-0.257303	0.186176
	H353	H	0.389238	-0.287869	0.200239
	C354	C	0.333308	-0.239870	0.190221
	H355	H	0.378506	-0.256712	0.169302
	C356	C	0.311376	-0.240848	0.212149
	C357	C	0.317243	-0.258216	0.229528
	H358	H	0.289577	-0.227592	0.215500
	H359	H	0.300107	-0.258584	0.246435
	C360	C	0.286367	-0.381001	0.362631
	C361	C	0.273588	-0.395146	0.375080
	H362	H	0.273434	-0.358586	0.366065
	C363	C	0.290069	-0.424266	0.370914
	H364	H	0.250591	-0.383734	0.388292
	C365	C	0.319882	-0.438690	0.353670
	C366	C	0.332804	-0.424639	0.341149
	H367	H	0.332722	-0.461124	0.350355
	H368	H	0.355799	-0.436032	0.327979
	C369	C	0.373976	-0.255683	0.406483
	N370	N	0.351715	-0.240113	0.427104
	H371	H	0.395034	-0.260511	0.400165
	C372	C	0.326424	-0.220380	0.172715
	N373	N	0.345448	-0.218011	0.152743
	H374	H	0.303829	-0.206935	0.177564
	C375	C	0.276229	-0.438813	0.384612
	N376	N	0.290130	-0.465412	0.381772
	H377	H	0.253005	-0.426054	0.397988
	C378	C	0.139411	0.191879	-0.169123
	C379	C	0.131928	0.209850	-0.186340
	C380	C	0.122144	0.237579	-0.184090
	H381	H	0.120109	0.245282	-0.169063
	C382	C	0.115154	0.255401	-0.201207
	C383	C	0.105921	0.283234	-0.198733
	C384	C	0.118007	0.245251	-0.220763
	H385	H	0.112814	0.258817	-0.234086
	C386	C	0.127757	0.217546	-0.223242
	C387	C	0.131263	0.206862	-0.243249
	C388	C	0.134655	0.199999	-0.205961
	H389	H	0.142292	0.178614	-0.207868
	C390	C	0.136027	0.195497	-0.260034
	C391	C	0.143701	0.179535	-0.279212
	C392	C	0.099819	0.305795	-0.195256
	C393	C	0.095100	0.330299	-0.189543
	C394	C	0.146319	0.176852	-0.154611
	C395	C	0.154825	0.159685	-0.137605
	C396	C	0.161575	0.150329	-0.281593
	C397	C	0.169410	0.134457	-0.300297
	H398	H	0.169230	0.140325	-0.268639
	C399	C	0.159788	0.146994	-0.317372
	H400	H	0.183213	0.112000	-0.301987
	C401	C	0.141890	0.176157	-0.314952
	C402	C	0.133960	0.192175	-0.296246
	H403	H	0.134308	0.186094	-0.327966
	H404	H	0.120197	0.214607	-0.294592
	C405	C	0.180220	0.151402	-0.139273
	C406	C	0.188370	0.134898	-0.122505
	H407	H	0.193350	0.158132	-0.153806
	C408	C	0.171588	0.125997	-0.103450
	H409	H	0.207894	0.128691	-0.123880
	C410	C	0.146309	0.134177	-0.101886
	C411	C	0.138040	0.150690	-0.118603
	H412	H	0.133167	0.127468	-0.087316
	H413	H	0.118487	0.156901	-0.117146
	C414	C	0.068041	0.351376	-0.170765
	C415	C	0.064203	0.374414	-0.164301
	H416	H	0.050290	0.349246	-0.161158
	C417	C	0.087131	0.377327	-0.176287
	H418	H	0.043421	0.390282	-0.149577
	C419	C	0.113924	0.356568	-0.195412
	C420	C	0.117904	0.333496	-0.201952
	H421	H	0.131648	0.358750	-0.204882
	H422	H	0.138776	0.317526	-0.216505
	C423	C	0.168410	0.129963	-0.337174
	N424	N	0.184788	0.103315	-0.339419
	H425	H	0.160547	0.140636	-0.350103
	C426	C	0.179945	0.108915	-0.085511
	N427	N	0.202721	0.101377	-0.086229
	H428	H	0.165867	0.102811	-0.071062
	C429	C	0.083533	0.400810	-0.168448
	N430	N	0.105032	0.402175	-0.177296
	H431	H	0.062005	0.416811	-0.154053
	C432	C	-0.292240	0.735484	0.745360
	C433	C	-0.288209	0.710390	0.742181
	C434	C	-0.311426	0.709925	0.748431
	H435	H	-0.332921	0.728948	0.755880
	C436	C	-0.306848	0.685022	0.744620
	C437	C	-0.330142	0.684493	0.750335
	C438	C	-0.278761	0.660520	0.734337
	H439	H	-0.275103	0.641373	0.731118
	C440	C	-0.255338	0.660714	0.727856
	C441	C	-0.226716	0.636152	0.716654
	C442	C	-0.260278	0.685705	0.731920
	H443	H	-0.242272	0.686019	0.726814
	C444	C	-0.201664	0.616580	0.705930
	C445	C	-0.171599	0.595532	0.692290
	C446	C	-0.348799	0.683303	0.753240
	C447	C	-0.369457	0.681669	0.754201
	C448	C	-0.292335	0.755441	0.745652
	C449	C	-0.288760	0.776990	0.743027
	C450	C	-0.154675	0.583951	0.703423
	C451	C	-0.125100	0.564371	0.689738
	H452	H	-0.165015	0.590746	0.722793
	C453	C	-0.111236	0.555552	0.664461
	H454	H	-0.112296	0.555863	0.698454
	C455	C	-0.128244	0.566748	0.653518
	C456	C	-0.157838	0.586352	0.667109
	H457	H	-0.117765	0.560035	0.634076
	H458	H	-0.170596	0.595005	0.658336
	C459	C	-0.263622	0.770921	0.740207
	C460	C	-0.259276	0.791548	0.736417
	H461	H	-0.247470	0.749807	0.740733
	C462	C	-0.279805	0.819047	0.735383
	H463	H	-0.239714	0.786606	0.733967
	C464	C	-0.305146	0.825182	0.738679
	C465	C	-0.309560	0.804594	0.742369
	H466	H	-0.321288	0.846316	0.738155
	H467	H	-0.329092	0.809562	0.744750
	C468	C	-0.381010	0.696367	0.738615
	C469	C	-0.400647	0.694412	0.738937
	H470	H	-0.374324	0.709226	0.726279
	C471	C	-0.409614	0.677820	0.754802
	H472	H	-0.409402	0.705794	0.726865
	C473	C	-0.398219	0.663298	0.770483
	C474	C	-0.378481	0.665111	0.770202
	H475	H	-0.405008	0.650498	0.782820
	H476	H	-0.369794	0.653740	0.782298
	C477	C	-0.079810	0.536128	0.649889
	N478	N	-0.065998	0.528020	0.626545
	H479	H	-0.067962	0.529154	0.659483
	C480	C	-0.274412	0.840458	0.729984
	N481	N	-0.249965	0.834567	0.723921
	H482	H	-0.291563	0.861658	0.730228
	C483	C	-0.430364	0.675908	0.754941
	N484	N	-0.438897	0.687194	0.739155
	H485	H	-0.438327	0.664448	0.768861
	C486	C	0.065979	0.601012	-0.070647
	C487	C	0.091231	0.574704	-0.084427
	C488	C	0.090742	0.559855	-0.097642
	H489	H	0.071341	0.568889	-0.097940
	C490	C	0.115093	0.533276	-0.110240
	C491	C	0.114375	0.517715	-0.122873
	C492	C	0.140112	0.521673	-0.109641
	H493	H	0.158721	0.500998	-0.118953
	C494	C	0.141067	0.536382	-0.096785
	C495	C	0.166493	0.524251	-0.096149
	C496	C	0.116486	0.562872	-0.084133
	H497	H	0.116883	0.574205	-0.073882
	C498	C	0.187955	0.513240	-0.095097
	C499	C	0.212708	0.499616	-0.093003
	C500	C	0.114495	0.502889	-0.132651
	C501	C	0.115709	0.483811	-0.143213
	C502	C	0.043174	0.621554	-0.056837
	C503	C	0.015014	0.641856	-0.038017
	C504	C	0.210839	0.492841	-0.069722
	C505	C	0.235001	0.479289	-0.067614
	H506	H	0.190254	0.498340	-0.053412
	C507	C	0.261932	0.471944	-0.088582
	H508	H	0.233384	0.474180	-0.049640
	C509	C	0.263750	0.478774	-0.111799
	C510	C	0.239647	0.492357	-0.114019
	H511	H	0.284417	0.473028	-0.128133
	H512	H	0.241476	0.497292	-0.132054
	C513	C	-0.008237	0.657833	-0.042301
	C514	C	-0.036201	0.675326	-0.022990
	H515	H	-0.004115	0.655766	-0.060732
	C516	C	-0.041988	0.677518	0.001230
	H517	H	-0.054120	0.686979	-0.026199
	C518	C	-0.018573	0.662591	0.005168
	C519	C	0.009414	0.645091	-0.014054
	H520	H	-0.022722	0.664466	0.023661
	H521	H	0.027200	0.633219	-0.010668
	C522	C	0.142421	0.459217	-0.158021
	C523	C	0.143759	0.440194	-0.167965
	H524	H	0.161965	0.455259	-0.161438
	C525	C	0.118524	0.444837	-0.163420
	H526	H	0.164433	0.421267	-0.179139
	C527	C	0.091889	0.469495	-0.148798
	C528	C	0.090442	0.488689	-0.138919
	H529	H	0.072367	0.473295	-0.145320
	H530	H	0.069785	0.507601	-0.127709
	C531	C	0.287474	0.457515	-0.086397
	N532	N	0.286731	0.450073	-0.065597
	H533	H	0.307612	0.453064	-0.103269
	C534	C	-0.071558	0.692994	0.022344
	N535	N	-0.093848	0.706286	0.020012
	H536	H	-0.074266	0.691612	0.040898
	C537	C	0.120285	0.423960	-0.173186
	N538	N	0.097884	0.425124	-0.166698
	H539	H	0.141872	0.406253	-0.185805
	C540	C	0.635675	0.553197	0.053972
	C541	C	0.650923	0.532465	0.034521
	C542	C	0.680817	0.519089	0.018495
	H543	H	0.691948	0.524607	0.021152
	C544	C	0.696426	0.498729	-0.000991
	C545	C	0.726644	0.485751	-0.017221
	C546	C	0.681824	0.491753	-0.004384
	H547	H	0.693697	0.476129	-0.019400
	C548	C	0.651917	0.504945	0.011485
	C549	C	0.637315	0.497877	0.007699
	C550	C	0.636592	0.525286	0.030912
	H551	H	0.613556	0.535543	0.043150
	C552	C	0.625184	0.491901	0.003970
	C553	C	0.611149	0.485006	-0.000836
	C554	C	0.752042	0.476316	-0.030857
	C555	C	0.781263	0.467316	-0.046757
	C556	C	0.625072	0.570638	0.069533
	C557	C	0.615649	0.590561	0.086437
	C558	C	0.607060	0.464067	0.010834
	C559	C	0.593325	0.457459	0.006062
	H560	H	0.614815	0.453105	0.023610
	C561	C	0.582736	0.471506	-0.010245
	H562	H	0.590276	0.441298	0.015148
	C563	C	0.587434	0.492146	-0.022280
	C564	C	0.601174	0.498819	-0.017583
	H565	H	0.580569	0.502845	-0.035673
	H566	H	0.604480	0.514754	-0.026893
	C567	C	0.635785	0.593150	0.085010
	C568	C	0.626955	0.612548	0.101283
	H569	H	0.658354	0.579790	0.070996
	C570	C	0.597756	0.630146	0.119616
	H571	H	0.642627	0.614376	0.100009
	C572	C	0.577662	0.627532	0.121051
	C573	C	0.586377	0.608132	0.104797
	H574	H	0.555101	0.640936	0.135092
	H575	H	0.570698	0.606334	0.106081
	C576	C	0.799030	0.450385	-0.069486
	C577	C	0.827296	0.442385	-0.085222
	H578	H	0.790286	0.443809	-0.074631
	C579	C	0.838922	0.450941	-0.078925
	H580	H	0.840677	0.429530	-0.102732
	C581	C	0.821242	0.467565	-0.056090
	C582	C	0.792986	0.475618	-0.040285
	H583	H	0.830013	0.474219	-0.051044
	H584	H	0.779604	0.488563	-0.022838
	C585	C	0.568931	0.462525	-0.014052
	N586	N	0.551644	0.468938	-0.021355
	H587	H	0.557720	0.485689	-0.017549
	C588	C	0.588716	0.650606	0.136670
	N589	N	0.607084	0.652940	0.135414
	H590	H	0.565780	0.663890	0.150569
	C591	C	0.868395	0.443339	-0.096028
	N592	N	0.879220	0.451672	-0.091118
	H593	H	0.880939	0.430673	-0.113652
	C594	C	1.032020	0.756353	-0.012408
	C595	C	1.023415	0.742477	-0.017029
	C596	C	0.997705	0.745099	0.001619
	H597	H	0.984586	0.757940	0.019055
	C598	C	0.988918	0.731089	-0.001949
	C599	C	0.963208	0.733481	0.017596
	C600	C	1.006169	0.714296	-0.024522
	H601	H	0.999630	0.703312	-0.027394
	C602	C	1.031979	0.711444	-0.043380
	C603	C	1.049463	0.693813	-0.065905
	C604	C	1.040485	0.725599	-0.039526
	H605	H	1.060398	0.723347	-0.053928
	C606	C	1.062799	0.677580	-0.083744
	C607	C	1.075378	0.657386	-0.102312
	C608	C	0.942170	0.735356	0.035837
	C609	C	0.919047	0.736839	0.058804
	C610	C	1.037291	0.767834	-0.005127
	C611	C	1.040895	0.780422	0.007345
	C612	C	1.102114	0.631637	-0.108756
	C613	C	1.112937	0.611214	-0.125369
	H614	H	1.113847	0.627691	-0.100142
	C615	C	1.097601	0.615741	-0.136217
	H616	H	1.133162	0.591238	-0.129744
	C617	C	1.071497	0.641865	-0.130515
	C618	C	1.060516	0.662305	-0.113867
	H619	H	1.059591	0.645590	-0.138874
	H620	H	1.040053	0.682084	-0.109200
	C621	C	1.018482	0.807447	0.020136
	C622	C	1.021152	0.818974	0.033852
	H623	H	0.998879	0.819034	0.019466
	C624	C	1.046206	0.804060	0.035352
	H625	H	1.003624	0.839599	0.043972
	C626	C	1.068885	0.777375	0.022003
	C627	C	1.066336	0.765730	0.008259
	H628	H	1.088376	0.765698	0.022881
	H629	H	1.083770	0.745001	-0.001616
	C630	C	0.890499	0.753877	0.063656
	C631	C	0.868184	0.755327	0.086427
	H632	H	0.886133	0.765773	0.049317
	C633	C	0.873503	0.739791	0.105156
	H634	H	0.846335	0.768533	0.089898
	C635	C	0.902085	0.722606	0.100146
	C636	C	0.924422	0.721134	0.077496
	H637	H	0.906459	0.710546	0.114438
	H638	H	0.946249	0.707970	0.074051
	C639	C	1.107375	0.593348	-0.151674
	N640	N	1.094420	0.597689	-0.162811
	H641	H	1.125442	0.572467	-0.152670
	C642	C	1.048123	0.815275	0.051437
	N643	N	1.027131	0.838910	0.065006
	H644	H	1.067829	0.802217	0.052408
	C645	C	0.850062	0.741607	0.129491
	N646	N	0.855311	0.727048	0.146314
	H647	H	0.828025	0.755941	0.132988
	C648	C	0.124247	0.443806	0.528547
	C649	C	0.150346	0.437326	0.524348
	C650	C	0.169453	0.440900	0.501725
	H651	H	0.164795	0.448036	0.486791
	C652	C	0.194235	0.435902	0.498579
	C653	C	0.212676	0.441278	0.476354
	C654	C	0.199872	0.427133	0.518225
	H655	H	0.218736	0.423620	0.515973
	C656	C	0.180935	0.423503	0.540942
	C657	C	0.185686	0.416287	0.561355
	C658	C	0.156234	0.428684	0.543832
	H659	H	0.141226	0.426497	0.561460
	C660	C	0.187578	0.413444	0.579632
	C661	C	0.187390	0.414227	0.601624
	C662	C	0.226999	0.448820	0.459540
	C663	C	0.241732	0.460933	0.442724
	C664	C	0.099891	0.451427	0.536385
	C665	C	0.069951	0.462851	0.550052
	C666	C	0.181412	0.438148	0.609795
	C667	C	0.180632	0.439566	0.631415
	H668	H	0.177442	0.455507	0.598951
	C669	C	0.185728	0.417275	0.645792
	H670	H	0.176107	0.458039	0.637478
	C671	C	0.191691	0.393397	0.637629
	C672	C	0.192504	0.391847	0.615967
	H673	H	0.195524	0.376124	0.648583
	H674	H	0.196906	0.373425	0.609987
	C675	C	0.054739	0.467781	0.576255
	C676	C	0.025194	0.480540	0.589947
	H677	H	0.066397	0.461658	0.585639
	C678	C	0.009623	0.488860	0.578117
	H679	H	0.013676	0.484598	0.610059
	C680	C	0.024976	0.483075	0.552019
	C681	C	0.054593	0.470309	0.538189
	H682	H	0.013304	0.489076	0.542685
	H683	H	0.066129	0.466206	0.518101
	C684	C	0.271507	0.444558	0.425154
	C685	C	0.285691	0.456899	0.409642
	H686	H	0.283285	0.422162	0.424023
	C687	C	0.270762	0.485964	0.411081
	H688	H	0.308633	0.444116	0.396338
	C689	C	0.240964	0.502233	0.428398
	C690	C	0.226686	0.490041	0.443920
	H691	H	0.229224	0.524646	0.429616
	H692	H	0.203782	0.502878	0.457304
	C693	C	0.185269	0.418977	0.668397
	N694	N	0.179600	0.440961	0.675806
	H695	H	0.190304	0.400849	0.678575
	C696	C	-0.021902	0.504398	0.592570
	N697	N	-0.036217	0.511279	0.616219
	H698	H	-0.033072	0.511007	0.582424
	C699	C	0.285817	0.499101	0.395446
	N700	N	0.272427	0.525632	0.397333
	H701	H	0.309016	0.485591	0.382358
	C702	C	0.337494	-0.156308	0.537656
	C703	C	0.335495	-0.142743	0.554586
	C704	C	0.352678	-0.158150	0.565545
	H705	H	0.367632	-0.180458	0.560992
	C706	C	0.350477	-0.144804	0.582452
	C707	C	0.367404	-0.159983	0.594000
	C708	C	0.330907	-0.115854	0.588328
	H709	H	0.329109	-0.105494	0.601389
	C710	C	0.313577	-0.100180	0.577566
	C711	C	0.293715	-0.070903	0.584203
	C712	C	0.315992	-0.113767	0.560683
	H713	H	0.302666	-0.101837	0.552348
	C714	C	0.277476	-0.046443	0.591871
	C715	C	0.259568	-0.018711	0.603057
	C716	C	0.379837	-0.170160	0.605554
	C717	C	0.392252	-0.179220	0.620672
	C718	C	0.338153	-0.167255	0.523659
	C719	C	0.337659	-0.179385	0.507783
	C720	C	0.249928	-0.013505	0.628088
	C721	C	0.233038	0.013381	0.639082
	H722	H	0.256034	-0.030830	0.638670
	C723	C	0.224656	0.036373	0.625888
	H724	H	0.225896	0.017128	0.658329
	C725	C	0.234579	0.030994	0.600686
	C726	C	0.251536	0.004083	0.589576
	H727	H	0.229422	0.047971	0.589535
	H728	H	0.259024	0.000328	0.570244
	C729	C	0.362762	-0.195813	0.485184
	C730	C	0.362005	-0.207500	0.469793
	H731	H	0.382742	-0.199231	0.479895
	C732	C	0.336266	-0.203273	0.476293
	H733	H	0.381395	-0.220100	0.452426
	C734	C	0.311229	-0.186867	0.498875
	C735	C	0.311853	-0.175143	0.514339
	H736	H	0.291234	-0.183426	0.504150
	H737	H	0.292415	-0.162559	0.531669
	C738	C	0.417274	-0.180803	0.612288
	C739	C	0.428762	-0.188789	0.627457
	H740	H	0.427490	-0.175725	0.593780
	C741	C	0.415802	-0.195539	0.651520
	H742	H	0.447961	-0.189834	0.620786
	C743	C	0.390999	-0.194213	0.659747
	C744	C	0.379365	-0.186157	0.644695
	H745	H	0.380939	-0.199545	0.678184
	H746	H	0.360241	-0.185223	0.651322
	C747	C	0.207840	0.063436	0.639432
	N748	N	0.191146	0.090275	0.640725
	H749	H	0.201134	0.069137	0.624627
	C750	C	0.335268	-0.215473	0.460136
	N751	N	0.357644	-0.230812	0.439424
	H752	H	0.314413	-0.211078	0.466329
	C753	C	0.427684	-0.203364	0.667620
	N754	N	0.416499	-0.209854	0.689644
	H755	H	0.446581	-0.203300	0.660328
	C756	C	0.427991	0.706406	0.720422
	C757	C	0.409886	0.712128	0.711944
	C758	C	0.413162	0.723684	0.689513
	H759	H	0.428835	0.728685	0.679369
	C760	C	0.396692	0.728496	0.679863
	C761	C	0.401979	0.738709	0.656335
	C762	C	0.376457	0.721919	0.693058
	H763	H	0.363885	0.725314	0.685623
	C764	C	0.372747	0.710541	0.715660
	C765	C	0.353027	0.702869	0.728455
	C766	C	0.389565	0.705653	0.724981
	H767	H	0.387043	0.696556	0.742194
	C768	C	0.338358	0.693945	0.738170
	C769	C	0.324176	0.680413	0.747955
	C770	C	0.411729	0.744853	0.635469
	C771	C	0.428688	0.749151	0.611363
	C772	C	0.445914	0.702035	0.723981
	C773	C	0.468382	0.698904	0.724344
	C774	C	0.294286	0.695245	0.757794
	C775	C	0.281061	0.681435	0.766791
	H776	H	0.281689	0.717600	0.758179
	C777	C	0.297091	0.652402	0.766323
	H778	H	0.258089	0.692913	0.774234
	C779	C	0.326903	0.637680	0.756649
	C780	C	0.340216	0.651341	0.747643
	H781	H	0.339562	0.615303	0.756172
	H782	H	0.363205	0.639720	0.740138
	C783	C	0.474581	0.687194	0.743570
	C784	C	0.496083	0.685288	0.743767
	H785	H	0.462178	0.679956	0.758386
	C786	C	0.512154	0.694938	0.724861
	H787	H	0.500498	0.676703	0.758791
	C788	C	0.506272	0.706128	0.705442
	C789	C	0.484869	0.708069	0.705133
	H790	H	0.518455	0.713648	0.690737
	H791	H	0.480268	0.717153	0.690271
	C792	C	0.422087	0.755472	0.592423
	C793	C	0.439775	0.758653	0.568847
	H794	H	0.403066	0.757751	0.596454
	C795	C	0.464577	0.755721	0.563340
	H796	H	0.434609	0.763371	0.554367
	C797	C	0.470834	0.749814	0.582419
	C798	C	0.453338	0.746543	0.605924
	H799	H	0.489837	0.747555	0.578444
	H800	H	0.458500	0.741904	0.620393
	C801	C	0.283783	0.637330	0.775180
	N802	N	0.256762	0.649144	0.783981
	H803	H	0.298098	0.614706	0.773812
	C804	C	0.533834	0.694472	0.725398
	N805	N	0.540942	0.683940	0.742169
	H806	H	0.543977	0.704016	0.710761
	C807	C	0.484204	0.757707	0.538264
	N808	N	0.506363	0.755682	0.533716
	H809	H	0.479815	0.760312	0.523466
	C810	C	0.502128	0.363300	-0.029705
	C811	C	0.494015	0.348221	-0.033278
	C812	C	0.512444	0.319158	-0.038560
	H813	H	0.532965	0.307952	-0.039629
	C814	C	0.504697	0.304593	-0.043007
	C815	C	0.523759	0.275296	-0.049603
	C816	C	0.478238	0.319346	-0.042030
	H817	H	0.472385	0.308241	-0.045814
	C818	C	0.459644	0.348380	-0.036831
	C819	C	0.433398	0.363161	-0.036813
	C820	C	0.467661	0.362668	-0.032431
	H821	H	0.453567	0.385068	-0.028629
	C822	C	0.411767	0.375321	-0.037881
	C823	C	0.387055	0.388914	-0.040029
	C824	C	0.539107	0.250943	-0.057317
	C825	C	0.555446	0.223332	-0.067982
	C826	C	0.508103	0.377834	-0.028076
	C827	C	0.514016	0.396512	-0.027547
	C828	C	0.388144	0.398031	-0.062744
	C829	C	0.364154	0.410856	-0.064951
	H830	H	0.408044	0.394734	-0.078629
	C831	C	0.338120	0.415279	-0.044602
	H832	H	0.365270	0.417567	-0.082568
	C833	C	0.337025	0.406288	-0.021897
	C834	C	0.361002	0.393303	-0.019618
	H835	H	0.317105	0.409580	-0.006054
	H836	H	0.359901	0.386413	-0.002055
	C837	C	0.535328	0.388061	-0.022389
	C838	C	0.540959	0.406535	-0.022115
	H839	H	0.547292	0.366944	-0.018596
	C840	C	0.525707	0.434036	-0.027063
	H841	H	0.557346	0.399923	-0.018085
	C842	C	0.504458	0.442415	-0.032232
	C843	C	0.498632	0.424090	-0.032397
	H844	H	0.492583	0.463492	-0.036177
	H845	H	0.482224	0.430818	-0.036421
	C846	C	0.585613	0.205599	-0.078478
	C847	C	0.601255	0.178849	-0.089240
	H848	H	0.596482	0.213151	-0.078089
	C849	C	0.587460	0.168799	-0.090016
	H850	H	0.624434	0.165411	-0.097216
	C851	C	0.557342	0.186545	-0.079469
	C852	C	0.541606	0.213254	-0.068669
	H853	H	0.546473	0.179032	-0.079937
	H854	H	0.518434	0.226670	-0.060697
	C855	C	0.312696	0.429061	-0.046837
	N856	N	0.313159	0.437018	-0.067457
	H857	H	0.292885	0.432551	-0.030133
	C858	C	0.531492	0.453639	-0.026727
	N859	N	0.549645	0.447247	-0.020789
	H860	H	0.519451	0.474426	-0.031528
	C861	C	0.603938	0.140719	-0.101671
	N862	N	0.591622	0.131458	-0.102829
	H863	H	0.627309	0.127780	-0.109611
	C864	C	1.102674	0.476478	-0.229823
	C865	C	1.095725	0.460281	-0.233494
	C866	C	1.075193	0.456432	-0.212848
	H867	H	1.065878	0.464783	-0.194340
	C868	C	1.066443	0.442145	-0.216009
	C869	C	1.044259	0.439851	-0.195320
	C870	C	1.078636	0.431450	-0.240092
	H871	H	1.071749	0.420666	-0.242667
	C872	C	1.099243	0.435052	-0.260919
	C873	C	1.109746	0.425407	-0.285143
	C874	C	1.107731	0.449501	-0.257519
	H875	H	1.123310	0.452675	-0.273504
	C876	C	1.114165	0.419091	-0.304401
	C877	C	1.114607	0.413924	-0.325063
	C878	C	1.023650	0.439848	-0.178575
	C879	C	0.997846	0.442012	-0.160020
	C880	C	1.104545	0.492796	-0.224605
	C881	C	1.102756	0.513780	-0.216122
	C882	C	1.107969	0.395585	-0.324316
	C883	C	1.107167	0.391404	-0.344020
	H884	H	1.103136	0.385003	-0.307982
	C885	C	1.113507	0.404816	-0.365469
	H886	H	1.101747	0.377498	-0.343239
	C887	C	1.119837	0.423420	-0.366021
	C888	C	1.120393	0.427860	-0.346257
	H889	H	1.123818	0.434749	-0.381979
	H890	H	1.125079	0.442330	-0.346864
	C891	C	1.114993	0.507805	-0.201693
	C892	C	1.112225	0.528557	-0.192581
	H893	H	1.126522	0.486733	-0.197660
	C894	C	1.096777	0.556149	-0.197193
	H895	H	1.121578	0.523752	-0.181351
	C896	C	1.084768	0.562085	-0.211819
	C897	C	1.087787	0.541325	-0.221225
	H898	H	1.072849	0.583257	-0.215555
	H899	H	1.078281	0.546151	-0.232309
	C900	C	0.980034	0.458303	-0.136920
	C901	C	0.954145	0.461458	-0.119299
	H902	H	0.986613	0.468687	-0.133199
	C903	C	0.945012	0.448548	-0.124027
	H904	H	0.940447	0.474341	-0.101735
	C905	C	0.963131	0.431820	-0.146890
	C906	C	0.989072	0.428538	-0.164564
	H907	H	0.956325	0.421701	-0.150646
	H908	H	1.002668	0.415820	-0.182195
	C909	C	1.110873	0.400610	-0.384977
	N910	N	1.121678	0.397349	-0.408815
	H911	H	1.133210	0.397323	-0.395291
	C912	C	1.091869	0.578397	-0.185912
	N913	N	1.104494	0.573596	-0.174262
	H914	H	1.076201	0.599754	-0.187120
	C915	C	0.916894	0.453309	-0.105894
	N916	N	0.906952	0.443366	-0.110216
	H917	H	0.903916	0.466520	-0.088472
	C918	C	0.744589	0.718773	0.307919
	C919	C	0.734395	0.711638	0.332640
	C920	C	0.704757	0.724424	0.349749
	H921	H	0.689263	0.740149	0.344204
	C922	C	0.695190	0.716934	0.374006
	C923	C	0.665341	0.729542	0.391865
	C924	C	0.715526	0.696466	0.380989
	H925	H	0.708224	0.690620	0.399659
	C926	C	0.745187	0.683499	0.364109
	C927	C	0.765372	0.662692	0.371585
	C928	C	0.754440	0.691228	0.339965
	H929	H	0.777295	0.681263	0.326792
	C930	C	0.781367	0.644765	0.378969
	C931	C	0.798897	0.623221	0.388475
	C932	C	0.641560	0.737567	0.409763
	C933	C	0.616749	0.743252	0.433233
	C934	C	0.757101	0.721639	0.286263
	C935	C	0.776458	0.720822	0.260924
	C936	C	0.818739	0.623797	0.389899
	C937	C	0.835683	0.602577	0.399262
	H938	H	0.820800	0.640940	0.383436
	C939	C	0.833495	0.580023	0.407579
	H940	H	0.851021	0.603084	0.400166
	C941	C	0.813690	0.579480	0.406104
	C942	C	0.796727	0.600604	0.396753
	H943	H	0.811732	0.562259	0.412452
	H944	H	0.781555	0.599925	0.395748
	C945	C	0.766881	0.736983	0.244394
	C946	C	0.786531	0.735746	0.219781
	H947	H	0.743962	0.750428	0.251124
	C948	C	0.816366	0.718360	0.210761
	H949	H	0.779062	0.748361	0.207175
	C950	C	0.825849	0.702014	0.227266
	C951	C	0.806364	0.703179	0.251815
	H952	H	0.848758	0.688430	0.220609
	H953	H	0.813907	0.690472	0.264344
	C954	C	0.615954	0.744629	0.455250
	C955	C	0.592780	0.748511	0.478398
	H956	H	0.633902	0.742294	0.453870
	C957	C	0.569444	0.751224	0.480559
	H958	H	0.592656	0.749186	0.495144
	C959	C	0.569947	0.750474	0.458591
	C960	C	0.593147	0.746540	0.435327
	H961	H	0.551999	0.752637	0.460122
	H962	H	0.593417	0.745645	0.418565
	C963	C	0.851136	0.557584	0.417598
	N964	N	0.869178	0.557292	0.419806
	H965	H	0.848355	0.540642	0.423473
	C966	C	0.837536	0.717173	0.185165
	N967	N	0.830956	0.731575	0.168793
	H968	H	0.860211	0.703339	0.180147
	C969	C	0.546174	0.753531	0.505186
	N970	N	0.524126	0.755972	0.508778
	H971	H	0.548486	0.752335	0.521094
	C972	C	0.186723	0.548536	0.824923
	C973	C	0.192571	0.521707	0.825370
	C974	C	0.206553	0.502264	0.837999
	H975	H	0.211420	0.508379	0.848168
	C976	C	0.214617	0.474956	0.837350
	C977	C	0.229773	0.455583	0.849589
	C978	C	0.208699	0.467050	0.823725
	H979	H	0.215385	0.445890	0.822716
	C980	C	0.194716	0.486289	0.810969
	C981	C	0.190118	0.478018	0.795977
	C982	C	0.186548	0.513632	0.811994
	H983	H	0.175939	0.528445	0.802054
	C984	C	0.187286	0.472679	0.781202
	C985	C	0.184235	0.469444	0.762180
	C986	C	0.244847	0.440891	0.858631
	C987	C	0.264948	0.426134	0.866934
	C988	C	0.187499	0.568470	0.822589
	C989	C	0.195396	0.587105	0.817404
	C990	C	0.188313	0.445100	0.757522
	C991	C	0.185474	0.442418	0.738621
	H992	H	0.193801	0.428402	0.768781
	C993	C	0.178501	0.463832	0.723703
	H994	H	0.188673	0.423651	0.735048
	C995	C	0.174114	0.488240	0.728602
	C996	C	0.176931	0.491031	0.747422
	H997	H	0.168496	0.505025	0.717420
	H998	H	0.173366	0.509985	0.751061
	C999	C	0.224251	0.576194	0.808696
	C1000	C	0.232995	0.593589	0.802965
	H1001	H	0.239686	0.553923	0.806349
	C1002	C	0.213409	0.622559	0.805651
	H1003	H	0.255295	0.584903	0.796143
	C1004	C	0.184531	0.633477	0.814565
	C1005	C	0.175605	0.616124	0.820365
	H1006	H	0.169192	0.655760	0.816774
	H1007	H	0.153342	0.624792	0.827086
	C1008	C	0.256067	0.424165	0.892408
	C1009	C	0.275968	0.411014	0.900149
	H1010	H	0.233395	0.433503	0.905979
	C1011	C	0.305390	0.399372	0.882814
	H1012	H	0.268849	0.410050	0.919814
	C1013	C	0.314245	0.400907	0.857362
	C1014	C	0.294499	0.414008	0.849523
	H1015	H	0.336897	0.391841	0.843830
	H1016	H	0.301641	0.415240	0.829875
	C1017	C	0.176518	0.461016	0.703080
	N1018	N	0.181360	0.438916	0.696837
	H1019	H	0.171264	0.478653	0.692316
	C1020	C	0.223441	0.640444	0.798806
	N1021	N	0.250017	0.629908	0.790415
	H1022	H	0.207820	0.662845	0.800742
	C1023	C	0.326339	0.386699	0.890863
	N1024	N	0.353032	0.376896	0.874929
	H1025	H	0.318483	0.386449	0.910847
	C1026	C	0.481538	-0.266667	0.796195
	C1027	C	0.498757	-0.280844	0.807493
	C1028	C	0.514379	-0.272024	0.806359
	H1029	H	0.513199	-0.254233	0.796895
	C1030	C	0.531783	-0.286264	0.817114
	C1031	C	0.547813	-0.277359	0.815584
	C1032	C	0.533518	-0.309571	0.829074
	H1033	H	0.546878	-0.320572	0.837400
	C1034	C	0.518151	-0.318738	0.830236
	C1035	C	0.520502	-0.342782	0.841794
	C1036	C	0.500819	-0.304261	0.819413
	H1037	H	0.489061	-0.311304	0.820090
	C1038	C	0.522701	-0.363712	0.850540
	C1039	C	0.525430	-0.388753	0.859308
	C1040	C	0.561414	-0.269469	0.813795
	C1041	C	0.576605	-0.259197	0.811559
	C1042	C	0.468320	-0.256180	0.785318
	C1043	C	0.455114	-0.246397	0.770774
	C1044	C	0.551365	-0.411986	0.857945
	C1045	C	0.554251	-0.436708	0.865695
	H1046	H	0.569183	-0.410398	0.850555
	C1047	C	0.531438	-0.439238	0.875086
	H1048	H	0.574397	-0.454501	0.864325
	C1049	C	0.505432	-0.415891	0.876772
	C1050	C	0.502412	-0.391121	0.869070
	H1051	H	0.487701	-0.417602	0.884039
	H1052	H	0.482311	-0.373404	0.870326
	C1053	C	0.465385	-0.235809	0.748229
	C1054	C	0.453547	-0.227697	0.733339
	H1055	H	0.482973	-0.234463	0.742474
	C1056	C	0.431034	-0.229775	0.740332
	H1057	H	0.461782	-0.219880	0.715885
	C1058	C	0.420307	-0.239675	0.763161
	C1059	C	0.432106	-0.247882	0.778105
	H1060	H	0.402959	-0.241365	0.768780
	H1061	H	0.423987	-0.255911	0.795427
	C1062	C	0.602962	-0.276893	0.811202
	C1063	C	0.617482	-0.266557	0.809211
	H1064	H	0.611840	-0.298763	0.812450
	C1065	C	0.606275	-0.238211	0.807522
	H1066	H	0.637721	-0.280393	0.808972
	C1067	C	0.580018	-0.220618	0.807785
	C1068	C	0.565432	-0.230831	0.809754
	H1069	H	0.571195	-0.198742	0.806486
	H1070	H	0.545212	-0.217007	0.809978
	C1071	C	0.535075	-0.465768	0.882092
	N1072	N	0.515039	-0.468991	0.889604
	H1073	H	0.555951	-0.483266	0.880025
	C1074	C	0.419424	-0.222459	0.724094
	N1075	N	0.430617	-0.215979	0.702059
	H1076	H	0.400929	-0.223146	0.731199
	C1077	C	0.621356	-0.227166	0.805729
	N1078	N	0.611028	-0.201198	0.804625
	H1079	H	0.641747	-0.241725	0.805514
	C1080	C	0.682168	-0.109627	0.795843
	C1081	C	0.694476	-0.096371	0.794435
	C1082	C	0.677194	-0.071578	0.809866
	H1083	H	0.654522	-0.062704	0.822906
	C1084	C	0.689069	-0.058190	0.808445
	C1085	C	0.671703	-0.032800	0.823633
	C1086	C	0.718497	-0.069913	0.791445
	H1087	H	0.727799	-0.059681	0.790191
	C1088	C	0.736048	-0.094685	0.775912
	C1089	C	0.765625	-0.105478	0.758596
	C1090	C	0.723898	-0.107813	0.777461
	H1091	H	0.737198	-0.126780	0.765432
	C1092	C	0.789173	-0.109810	0.744381
	C1093	C	0.813236	-0.108250	0.729005
	C1094	C	0.658128	-0.010768	0.835333
	C1095	C	0.643143	0.015512	0.847812
	C1096	C	0.671325	-0.120488	0.797020
	C1097	C	0.657962	-0.132528	0.798485
	C1098	C	0.841822	-0.131579	0.720960
	C1099	C	0.864650	-0.128883	0.706689
	H1100	H	0.845731	-0.151600	0.726256
	C1101	C	0.859771	-0.102895	0.699988
	H1102	H	0.886535	-0.146846	0.700833
	C1103	C	0.831236	-0.079772	0.707722
	C1104	C	0.808419	-0.082328	0.721920
	H1105	H	0.827147	-0.059646	0.702586
	H1106	H	0.786572	-0.064304	0.727745
	C1107	C	0.670263	-0.161091	0.800199
	C1108	C	0.657021	-0.172644	0.801623
	H1109	H	0.690337	-0.174056	0.800225
	C1110	C	0.631104	-0.156220	0.801356
	H1111	H	0.666712	-0.194675	0.802782
	C1112	C	0.618838	-0.127687	0.799675
	C1113	C	0.631969	-0.116022	0.798254
	H1114	H	0.598845	-0.114775	0.799504
	H1115	H	0.622312	-0.094028	0.796992
	C1116	C	0.612927	0.034124	0.859083
	C1117	C	0.598447	0.059961	0.870849
	H1118	H	0.601090	0.028044	0.858384
	C1119	C	0.613468	0.068289	0.871847
	H1120	H	0.575213	0.074098	0.879370
	C1121	C	0.643606	0.049616	0.860712
	C1122	C	0.658208	0.023743	0.848922
	H1123	H	0.655364	0.055814	0.861418
	H1124	H	0.681436	0.009633	0.840374
	C1125	C	0.883321	-0.099272	0.686262
	N1126	N	0.877896	-0.074942	0.682089
	H1127	H	0.905268	-0.117542	0.680593
	C1128	C	0.617113	-0.168280	0.802679
	N1129	N	0.628024	-0.194407	0.803340
	H1130	H	0.596613	-0.154112	0.803027
	C1131	C	0.597930	0.095797	0.883984
	N1132	N	0.610687	0.104556	0.885112
	H1133	H	0.574489	0.109190	0.892153
	C1134	C	1.045398	0.390438	0.515027
	C1135	C	1.032629	0.386198	0.505976
	C1136	C	1.037246	0.360278	0.506413
	H1137	H	1.050455	0.343705	0.513692
	C1138	C	1.024783	0.355648	0.497669
	C1139	C	1.029317	0.329338	0.498865
	C1140	C	1.007551	0.377289	0.488351
	H1141	H	0.998007	0.373796	0.481469
	C1142	C	1.002586	0.403406	0.487928
	C1143	C	0.984685	0.425551	0.478942
	C1144	C	1.015233	0.407684	0.496742
	H1145	H	1.011440	0.427763	0.496487
	C1146	C	0.969408	0.444760	0.471533
	C1147	C	0.951938	0.467176	0.462407
	C1148	C	1.032917	0.306966	0.501502
	C1149	C	1.036593	0.280971	0.506113
	C1150	C	1.056877	0.392489	0.523109
	C1151	C	1.071139	0.393029	0.532854
	C1152	C	0.932298	0.467095	0.460173
	C1153	C	0.915712	0.488738	0.450767
	H1154	H	0.930512	0.449735	0.465656
	C1155	C	0.917990	0.511303	0.443265
	H1156	H	0.900807	0.488411	0.448951
	C1157	C	0.937358	0.511514	0.445796
	C1158	C	0.954047	0.489899	0.455143
	H1159	H	0.939357	0.528746	0.440068
	H1160	H	0.969065	0.490200	0.456769
	C1161	C	1.057974	0.399031	0.558652
	C1162	C	1.072275	0.398867	0.568140
	H1163	H	1.036487	0.403809	0.571086
	C1164	C	1.100178	0.392742	0.552333
	H1165	H	1.061952	0.403647	0.587993
	C1166	C	1.113167	0.387036	0.526553
	C1167	C	1.099002	0.387112	0.516956
	H1168	H	1.134541	0.382563	0.514156
	H1169	H	1.109303	0.382557	0.497085
	C1170	C	1.061459	0.257589	0.506379
	C1171	C	1.064753	0.232356	0.511362
	H1172	H	1.078012	0.259565	0.502672
	C1173	C	1.043381	0.229471	0.516349
	H1174	H	1.083917	0.214553	0.511586
	C1175	C	1.018665	0.252798	0.515928
	C1176	C	1.015286	0.278059	0.510890
	H1177	H	1.002119	0.250763	0.519676
	H1178	H	0.996156	0.295826	0.510604
	C1179	C	0.900923	0.533891	0.432856
	N1180	N	0.883363	0.534065	0.429969
	H1181	H	0.903661	0.550859	0.427425
	C1182	C	1.115262	0.392749	0.562246
	N1183	N	1.104414	0.397181	0.585741
	H1184	H	1.136412	0.388936	0.548786
	C1185	C	1.046433	0.203097	0.522641
	N1186	N	1.026247	0.200504	0.529161
	H1187	H	1.066250	0.185683	0.522482
	C1188	C	0.528390	0.371452	0.906144
	C1189	C	0.533770	0.345754	0.902474
	C1190	C	0.513524	0.345513	0.901603
	H1191	H	0.493528	0.364903	0.904385
	C1192	C	0.518949	0.320391	0.897084
	C1193	C	0.498407	0.320821	0.895582
	C1194	C	0.544988	0.295294	0.893347
	H1195	H	0.549374	0.275876	0.889726
	C1196	C	0.565414	0.295203	0.894251
	C1197	C	0.592323	0.269851	0.889397
	C1198	C	0.559665	0.320500	0.898820
	H1199	H	0.575431	0.320569	0.899311
	C1200	C	0.616620	0.249203	0.882313
	C1201	C	0.646283	0.226828	0.870253
	C1202	C	0.480545	0.323919	0.892752
	C1203	C	0.459810	0.331106	0.887104
	C1204	C	0.523833	0.393794	0.907445
	C1205	C	0.518515	0.420374	0.906631
	C1206	C	0.666994	0.229386	0.867578
	C1207	C	0.696167	0.208404	0.854160
	H1208	H	0.659926	0.248182	0.875753
	C1209	C	0.705807	0.184098	0.842949
	H1210	H	0.712002	0.210735	0.851799
	C1211	C	0.685043	0.181230	0.846265
	C1212	C	0.655825	0.202171	0.859630
	H1213	H	0.692171	0.162584	0.837771
	H1214	H	0.640064	0.200007	0.861596
	C1215	C	0.539050	0.423521	0.903496
	C1216	C	0.534166	0.449454	0.901533
	H1217	H	0.558842	0.405399	0.902491
	C1218	C	0.508656	0.473200	0.902673
	H1219	H	0.550230	0.451641	0.898829
	C1220	C	0.487875	0.470101	0.906412
	C1221	C	0.492662	0.444236	0.908336
	H1222	H	0.468079	0.488212	0.907399
	H1223	H	0.476672	0.442066	0.910860
	C1224	C	0.465497	0.334753	0.862436
	C1225	C	0.444910	0.343300	0.856763
	H1226	H	0.486139	0.331025	0.847938
	C1227	C	0.417804	0.348689	0.875444
	H1228	H	0.449485	0.346265	0.837753
	C1229	C	0.412354	0.344530	0.899973
	C1230	C	0.432974	0.335799	0.905741
	H1231	H	0.391533	0.348606	0.914467
	H1232	H	0.428373	0.332936	0.924757
	C1233	C	0.736635	0.163001	0.827062
	N1234	N	0.756084	0.166094	0.821973
	H1235	H	0.742729	0.144757	0.818580
	C1236	C	0.504056	0.500356	0.899090
	N1237	N	0.523245	0.503905	0.893878
	H1238	H	0.483708	0.517843	0.900147
	C1239	C	0.395953	0.359063	0.869149
	N1240	N	0.369940	0.366646	0.885530
	H1241	H	0.402322	0.360988	0.849472
	C1242	C	0.977489	-0.001942	0.635067
	C1243	C	0.977135	0.020023	0.639850
	C1244	C	0.991219	0.031131	0.620638
	H1245	H	1.003733	0.022232	0.601520
	C1246	C	0.988384	0.054269	0.626093
	C1247	C	1.000973	0.066963	0.606838
	C1248	C	0.971242	0.066300	0.650943
	H1249	H	0.968568	0.084451	0.655122
	C1250	C	0.956967	0.055460	0.670282
	C1251	C	0.937509	0.068919	0.695166
	C1252	C	0.960151	0.032260	0.664572
	H1253	H	0.948855	0.024035	0.679354
	C1254	C	0.917018	0.081512	0.715514
	C1255	C	0.889497	0.097336	0.737184
	C1256	C	1.007168	0.081993	0.592817
	C1257	C	1.008960	0.103859	0.579778
	C1258	C	0.969726	-0.016005	0.636274
	C1259	C	0.952007	-0.025159	0.643520
	C1260	C	0.869751	0.090365	0.746707
	C1261	C	0.842026	0.106814	0.766658
	H1262	H	0.876326	0.072183	0.737997
	C1263	C	0.832888	0.130811	0.777911
	H1264	H	0.826845	0.101538	0.773592
	C1265	C	0.852884	0.137301	0.768856
	C1266	C	0.880675	0.120923	0.748860
	H1267	H	0.846174	0.155652	0.777440
	H1268	H	0.895723	0.126383	0.741796
	C1269	C	0.963076	-0.053250	0.640248
	C1270	C	0.944575	-0.061110	0.648535
	H1271	H	0.986161	-0.068693	0.631357
	C1272	C	0.914519	-0.041298	0.660275
	H1273	H	0.953069	-0.082740	0.646160
	C1274	C	0.903596	-0.013254	0.663339
	C1275	C	0.921896	-0.005313	0.655173
	H1276	H	0.880509	0.002277	0.672254
	H1277	H	0.913182	0.016372	0.657582
	C1278	C	0.984003	0.128562	0.580708
	C1279	C	0.984836	0.150717	0.569152
	H1280	H	0.964021	0.130091	0.590807
	C1281	C	1.010526	0.149192	0.556293
	H1282	H	0.965391	0.169694	0.570307
	C1283	C	1.035551	0.124336	0.554949
	C1284	C	1.034868	0.102032	0.566429
	H1285	H	1.055495	0.122894	0.544887
	H1286	H	1.054264	0.083063	0.565332
	C1287	C	0.802907	0.149344	0.797610
	N1288	N	0.783769	0.144913	0.804772
	H1289	H	0.796888	0.167966	0.805387
	C1290	C	0.894348	-0.048841	0.669896
	N1291	N	0.901801	-0.074047	0.670533
	H1292	H	0.871489	-0.031644	0.677703
	C1293	C	1.010390	0.173515	0.545713
	N1294	N	1.032255	0.174512	0.536199
	H1295	H	0.990153	0.191829	0.547121
