data_Molecule from CHK

_cell_length_a		59.718958
_cell_length_b		53.329573
_cell_length_c		53.848682
_cell_angle_alpha	89.999747
_cell_angle_beta	93.345796
_cell_angle_gamma	89.999891
_symmetry_space_group_name_H-M	'P 1'
_symmetry_Int_Tables_number		1

loop_
	_symmetry_equiv_pos_as_xyz
	x,y,z

loop_
	_atom_site_label
	_atom_site_type_symbol
	_atom_site_fract_x
	_atom_site_fract_y
	_atom_site_fract_z
	C0	C	0.108830	0.225665	0.567580
	C1	C	0.110777	0.223582	0.593601
	C2	C	0.131498	0.226459	0.606984
	C3	C	0.150568	0.231405	0.593738
	C4	C	0.149313	0.233197	0.567688
	C5	C	0.128299	0.230312	0.554922
	H6	H	0.166698	0.233597	0.603862
	H7	H	0.127067	0.231767	0.534787
	H8	H	0.095902	0.219780	0.603625
	C9	C	-0.048976	0.221216	0.454834
	C10	C	-0.059665	0.221994	0.477772
	C11	C	-0.047916	0.221611	0.500144
	C12	C	-0.023872	0.220874	0.500250
	C13	C	-0.026309	0.220536	0.453812
	C14	C	-0.012972	0.220609	0.476885
	C15	C	-0.010493	0.220631	0.522520
	C16	C	0.013005	0.220611	0.523114
	C17	C	0.010525	0.220632	0.477479
	C18	C	0.023904	0.220876	0.499750
	C19	C	0.026341	0.220538	0.546187
	C20	C	0.049008	0.221218	0.545166
	C21	C	0.059698	0.221996	0.522228
	C22	C	0.047949	0.221615	0.499856
	H23	H	-0.056224	0.222106	0.517476
	H24	H	-0.018350	0.220122	0.436262
	H25	H	-0.018651	0.220657	0.540002
	H26	H	0.018684	0.220658	0.459998
	H27	H	0.018381	0.220124	0.563737
	H28	H	0.056257	0.222110	0.482524
	B29	B	-0.085780	0.223284	0.446769
	O30	O	-0.065340	0.221641	0.435678
	O31	O	-0.082526	0.223221	0.472587
	B32	B	0.085812	0.223280	0.553232
	O33	O	0.065372	0.221640	0.564322
	O34	O	0.082558	0.223221	0.527414
	C35	C	0.126465	0.211053	0.673572
	C36	C	0.147055	0.224577	0.674714
	C37	C	0.159278	0.228477	0.696449
	C38	C	0.151360	0.217492	0.718655
	C39	C	0.118350	0.199945	0.693890
	C40	C	0.131106	0.202440	0.717200
	C41	C	0.162940	0.220576	0.741861
	C42	C	0.156284	0.208780	0.763498
	C43	C	0.124634	0.190352	0.738748
	C44	C	0.136814	0.192495	0.761696
	C45	C	0.168436	0.212153	0.787080
	C46	C	0.161731	0.198771	0.806795
	C47	C	0.143441	0.181634	0.804622
	C48	C	0.130688	0.178617	0.783112
	H49	H	0.174754	0.239092	0.697167
	H50	H	0.102877	0.189321	0.692738
	H51	H	0.177832	0.232267	0.743051
	H52	H	0.109794	0.178580	0.737536
	H53	H	0.182639	0.224776	0.788786
	H54	H	0.116637	0.165766	0.781777
	B55	B	0.133413	0.223569	0.635520
	O56	O	0.117770	0.211180	0.649282
	O57	O	0.151321	0.232127	0.650950
	B58	B	0.158992	0.179484	0.842969
	O59	O	0.170727	0.198029	0.830984
	O60	O	0.141844	0.169758	0.827177
	C61	C	0.293742	0.257160	0.454751
	C62	C	0.306923	0.257690	0.477645
	C63	C	0.297710	0.255545	0.500024
	C64	C	0.273804	0.252727	0.500191
	C65	C	0.271087	0.254475	0.453786
	C66	C	0.260380	0.252186	0.476875
	C67	C	0.262955	0.250502	0.522479
	C68	C	0.239652	0.247777	0.523135
	C69	C	0.237076	0.249461	0.477532
	C70	C	0.226227	0.247237	0.499819
	C71	C	0.228942	0.245488	0.546225
	C72	C	0.206288	0.242803	0.545259
	C73	C	0.193108	0.242274	0.522364
	C74	C	0.202321	0.244419	0.499986
	H75	H	0.307894	0.255996	0.517323
	H76	H	0.261225	0.254119	0.436270
	H77	H	0.273001	0.250906	0.539925
	H78	H	0.227031	0.249057	0.460086
	H79	H	0.238805	0.245843	0.563741
	H80	H	0.192138	0.243970	0.482687
	B81	B	0.329442	0.262293	0.446629
	O82	O	0.307881	0.259883	0.435578
	O83	O	0.329089	0.260736	0.472418
	B84	B	0.170586	0.237673	0.553379
	O85	O	0.192148	0.240080	0.564431
	O86	O	0.170941	0.239230	0.527590
	C87	C	0.891201	0.225677	0.432423
	C88	C	0.889252	0.223600	0.406402
	C89	C	0.868531	0.226485	0.393021
	C90	C	0.849463	0.231432	0.406269
	C91	C	0.850720	0.233217	0.432320
	C92	C	0.871734	0.230326	0.445084
	H93	H	0.833332	0.233628	0.396147
	H94	H	0.872968	0.231776	0.465218
	H95	H	0.904126	0.219797	0.396376
	C96	C	0.184583	0.173727	0.910488
	C97	C	0.178214	0.183480	0.886889
	C98	C	0.165160	0.169511	0.869366
	C99	C	0.158722	0.145180	0.875792
	C100	C	0.165248	0.134559	0.898941
	C101	C	0.178156	0.149121	0.916119
	H102	H	0.148843	0.134100	0.862261
	H103	H	0.183352	0.141144	0.934075
	H104	H	0.183407	0.202279	0.882091
	C105	C	0.350714	0.266773	0.432317
	C106	C	0.349457	0.268565	0.406267
	C107	C	0.368525	0.273516	0.393020
	C108	C	0.389246	0.276398	0.406401
	C109	C	0.391194	0.274315	0.432422
	C110	C	0.371727	0.269663	0.445082
	H111	H	0.404119	0.280204	0.396376
	H112	H	0.372961	0.268208	0.465216
	H113	H	0.333326	0.266370	0.396144
	C114	C	0.838298	0.198813	0.193206
	C115	C	0.856585	0.181673	0.195380
	C116	C	0.869336	0.178652	0.216891
	C117	C	0.863211	0.192530	0.238307
	C118	C	0.831595	0.212197	0.212921
	C119	C	0.843745	0.208821	0.236504
	C120	C	0.875390	0.190383	0.261256
	C121	C	0.868919	0.202472	0.282804
	C122	C	0.837090	0.220618	0.258142
	C123	C	0.848668	0.217530	0.281348
	C124	C	0.881674	0.199973	0.306114
	C125	C	0.873561	0.211084	0.326432
	C126	C	0.852974	0.224612	0.325290
	C127	C	0.840752	0.228517	0.303554
	H128	H	0.883384	0.165796	0.218227
	H129	H	0.817394	0.224823	0.211214
	H130	H	0.890227	0.178607	0.262469
	H131	H	0.822201	0.232313	0.256950
	H132	H	0.897144	0.189344	0.307266
	H133	H	0.825278	0.239135	0.302836
	B134	B	0.841037	0.179526	0.157032
	O135	O	0.829304	0.198074	0.169016
	O136	O	0.858183	0.169796	0.172826
	B137	B	0.866615	0.223599	0.364484
	O138	O	0.882255	0.211207	0.350722
	O139	O	0.848709	0.232163	0.349054
	C140	C	0.706285	0.257172	0.545254
	C141	C	0.693107	0.257698	0.522358
	C142	C	0.702321	0.255552	0.499981
	C143	C	0.726228	0.252734	0.499816
	C144	C	0.728940	0.254487	0.546222
	C145	C	0.739651	0.252196	0.523133
	C146	C	0.737078	0.250508	0.477529
	C147	C	0.760381	0.247785	0.476875
	C148	C	0.762955	0.249470	0.522478
	C149	C	0.773805	0.247246	0.500192
	C150	C	0.771091	0.245497	0.453786
	C151	C	0.793746	0.242816	0.454752
	C152	C	0.806925	0.242287	0.477647
	C153	C	0.797712	0.244429	0.500026
	H154	H	0.692139	0.256000	0.482681
	H155	H	0.738801	0.254133	0.563738
	H156	H	0.727033	0.250911	0.460083
	H157	H	0.772999	0.249067	0.539925
	H158	H	0.761229	0.245852	0.436270
	H159	H	0.807895	0.243979	0.517325
	B160	B	0.670583	0.262302	0.553370
	O161	O	0.692144	0.259896	0.564424
	O162	O	0.670939	0.260744	0.527582
	B163	B	0.829448	0.237692	0.446632
	O164	O	0.807886	0.240097	0.435580
	O165	O	0.829093	0.239246	0.472421
	C166	C	0.162022	-0.067960	0.918388
	C167	C	0.148958	-0.067774	0.895411
	C168	C	0.140948	-0.046297	0.884687
	C169	C	0.146698	-0.023034	0.896833
	C170	C	0.167419	-0.046532	0.931046
	C171	C	0.160078	-0.023092	0.920184
	C172	C	0.140206	-0.000004	0.886187
	C173	C	0.146703	0.023024	0.896833
	C174	C	0.166011	-0.000007	0.931201
	C175	C	0.160082	0.023079	0.920185
	C176	C	0.140957	0.046289	0.884686
	C177	C	0.148970	0.067764	0.895412
	C178	C	0.162033	0.067947	0.918389
	C179	C	0.167426	0.046517	0.931047
	H180	H	0.131096	-0.046432	0.867161
	H181	H	0.177471	-0.046818	0.948437
	H182	H	0.130267	-0.000003	0.868666
	H183	H	0.176087	-0.000008	0.948630
	H184	H	0.131107	0.046426	0.867160
	H185	H	0.177479	0.046801	0.948438
	B186	B	0.159595	-0.106827	0.903764
	O187	O	0.167951	-0.092484	0.923831
	O188	O	0.147009	-0.092029	0.886813
	B189	B	0.159614	0.106813	0.903764
	O190	O	0.147025	0.092018	0.886814
	O191	O	0.167966	0.092469	0.923832
	C192	C	0.282557	0.278156	0.053374
	C193	C	0.282379	0.298210	0.035912
	C194	C	0.271994	0.296331	0.012860
	C195	C	0.260924	0.273158	0.006249
	C196	C	0.272361	0.255848	0.048147
	C197	C	0.261106	0.252743	0.024043
	C198	C	0.249834	0.269655	-0.017158
	C199	C	0.238919	0.247223	-0.024048
	C200	C	0.250191	0.230311	0.017153
	C201	C	0.239101	0.226809	-0.006254
	C202	C	0.227663	0.244118	-0.048152
	C203	C	0.217465	0.221810	-0.053377
	C204	C	0.217642	0.201757	-0.035915
	C205	C	0.228029	0.203636	-0.012864
	H206	H	0.271959	0.311689	-0.000289
	H207	H	0.272612	0.240732	0.061580
	H208	H	0.249692	0.284922	-0.030484
	H209	H	0.250332	0.215045	0.030479
	H210	H	0.227412	0.259233	-0.061585
	H211	H	0.228064	0.188278	0.000286
	B212	B	0.301379	0.310252	0.070500
	O213	O	0.294365	0.285804	0.074805
	O214	O	0.294084	0.318084	0.046722
	B215	B	0.198640	0.189715	-0.070501
	O216	O	0.205657	0.214162	-0.074808
	O217	O	0.205936	0.181883	-0.046723
	C218	C	0.549003	0.278764	0.545163
	C219	C	0.559691	0.277985	0.522224
	C220	C	0.547942	0.278367	0.499853
	C221	C	0.523897	0.279104	0.499747
	C222	C	0.526336	0.279443	0.546185
	C223	C	0.512998	0.279369	0.523112
	C224	C	0.510518	0.279348	0.477477
	C225	C	0.487020	0.279369	0.476884
	C226	C	0.489501	0.279347	0.522519
	C227	C	0.476121	0.279103	0.500249
	C228	C	0.473683	0.279443	0.453811
	C229	C	0.451017	0.278765	0.454833
	C230	C	0.440328	0.277985	0.477772
	C231	C	0.452077	0.278365	0.500143
	H232	H	0.556249	0.277872	0.482520
	H233	H	0.518377	0.279858	0.563735
	H234	H	0.518676	0.279322	0.459996
	H235	H	0.481343	0.279320	0.540001
	H236	H	0.481643	0.279858	0.436261
	H237	H	0.443769	0.277868	0.517475
	B238	B	0.585807	0.276700	0.553226
	O239	O	0.565368	0.278341	0.564318
	O240	O	0.582552	0.276759	0.527408
	B241	B	0.414213	0.276703	0.446769
	O242	O	0.434652	0.278344	0.435678
	O243	O	0.417467	0.276761	0.472587
	C244	C	0.338291	0.301188	0.193206
	C245	C	0.356578	0.318328	0.195379
	C246	C	0.369330	0.321349	0.216889
	C247	C	0.363206	0.307471	0.238305
	C248	C	0.331587	0.287805	0.212922
	C249	C	0.343739	0.291181	0.236503
	C250	C	0.375385	0.309618	0.261253
	C251	C	0.368915	0.297529	0.282802
	C252	C	0.337084	0.279384	0.258141
	C253	C	0.348663	0.282473	0.281347
	C254	C	0.381669	0.300028	0.306112
	C255	C	0.373556	0.288919	0.326431
	C256	C	0.352968	0.275391	0.325289
	C257	C	0.340747	0.271486	0.303554
	H258	H	0.383378	0.334204	0.218224
	H259	H	0.317386	0.275180	0.211216
	H260	H	0.390223	0.321393	0.262465
	H261	H	0.322195	0.267690	0.256951
	H262	H	0.397140	0.310656	0.307264
	H263	H	0.325272	0.260868	0.302836
	B264	B	0.341027	0.320477	0.157032
	O265	O	0.329295	0.301928	0.169016
	O266	O	0.358173	0.330206	0.172824
	B267	B	0.366609	0.276405	0.364484
	O268	O	0.382250	0.288796	0.350721
	O269	O	0.348703	0.267841	0.349053
	C270	C	0.815452	0.173763	0.089510
	C271	C	0.821819	0.183519	0.113108
	C272	C	0.834870	0.169551	0.130635
	C273	C	0.841309	0.145219	0.124213
	C274	C	0.834785	0.134594	0.101066
	C275	C	0.821878	0.149155	0.083884
	H276	H	0.851188	0.134140	0.137747
	H277	H	0.816684	0.141176	0.065929
	H278	H	0.816627	0.202318	0.117904
	C279	C	0.608827	0.274313	0.567572
	C280	C	0.610774	0.276398	0.593593
	C281	C	0.631496	0.273521	0.606975
	C282	C	0.650565	0.268573	0.593728
	C283	C	0.649309	0.266780	0.567678
	C284	C	0.628295	0.269664	0.554913
	H285	H	0.666696	0.266383	0.603852
	H286	H	0.627061	0.268208	0.534779
	H287	H	0.595900	0.280201	0.603617
	C288	C	0.165222	0.865425	0.898945
	C289	C	0.158696	0.854801	0.875797
	C290	C	0.165128	0.830467	0.869377
	C291	C	0.178176	0.816497	0.886905
	C292	C	0.184545	0.826253	0.910502
	C293	C	0.178125	0.850862	0.916127
	H294	H	0.183364	0.797695	0.882111
	H295	H	0.183321	0.858841	0.934082
	H296	H	0.148821	0.865882	0.862263
	C297	C	0.315432	0.326241	0.089515
	C298	C	0.321805	0.316483	0.113111
	C299	C	0.334855	0.330453	0.130637
	C300	C	0.341285	0.354788	0.124217
	C301	C	0.334755	0.365414	0.101071
	C302	C	0.321851	0.350851	0.083890
	H303	H	0.351162	0.365868	0.137750
	H304	H	0.316652	0.358830	0.065936
	H305	H	0.316618	0.297681	0.117905
	C306	C	0.837956	-0.067928	0.081634
	C307	C	0.851024	-0.067748	0.104607
	C308	C	0.859042	-0.046273	0.115331
	C309	C	0.853297	-0.023007	0.103187
	C310	C	0.832562	-0.046497	0.068978
	C311	C	0.839913	-0.023061	0.079839
	C312	C	0.859800	0.000021	0.113830
	C313	C	0.853309	0.023053	0.103185
	C314	C	0.833985	0.000026	0.068824
	C315	C	0.839924	0.023111	0.079837
	C316	C	0.859064	0.046317	0.115327
	C317	C	0.851055	0.067795	0.104602
	C318	C	0.837987	0.067979	0.081628
	C319	C	0.832584	0.046550	0.068974
	H320	H	0.868898	-0.046413	0.132854
	H321	H	0.822506	-0.046778	0.051590
	H322	H	0.869744	0.000019	0.131348
	H323	H	0.823905	0.000029	0.051397
	H324	H	0.868919	0.046452	0.132851
	H325	H	0.822528	0.046836	0.051586
	B326	B	0.840375	-0.106797	0.096253
	O327	O	0.832020	-0.092449	0.076190
	O328	O	0.852968	-0.092003	0.113203
	B329	B	0.840417	0.106847	0.096247
	O330	O	0.853007	0.092050	0.113197
	O331	O	0.832060	0.092502	0.076183
	C332	C	0.717480	0.278190	-0.053385
	C333	C	0.717661	0.298245	-0.035926
	C334	C	0.728048	0.296368	-0.012875
	C335	C	0.739117	0.273194	-0.006262
	C336	C	0.727674	0.255880	-0.048156
	C337	C	0.738931	0.252777	-0.024054
	C338	C	0.750210	0.269693	0.017144
	C339	C	0.761124	0.247260	0.024036
	C340	C	0.749845	0.230344	-0.017162
	C341	C	0.760937	0.226843	0.006245
	C342	C	0.772381	0.244157	0.048139
	C343	C	0.782576	0.221847	0.053367
	C344	C	0.782395	0.201792	0.035908
	C345	C	0.772007	0.203669	0.012857
	H346	H	0.728085	0.311727	0.000273
	H347	H	0.727420	0.240763	-0.061588
	H348	H	0.750355	0.284961	0.030468
	H349	H	0.749700	0.215076	-0.030485
	H350	H	0.772636	0.259274	0.061570
	H351	H	0.771970	0.188310	-0.000290
	B352	B	0.698661	0.310288	-0.070514
	O353	O	0.705672	0.285838	-0.074816
	O354	O	0.705957	0.318121	-0.046737
	B355	B	0.801397	0.189751	0.070495
	O356	O	0.794385	0.214200	0.074798
	O357	O	0.794100	0.181917	0.046718
	C358	C	0.661746	0.301219	0.806782
	C359	C	0.643457	0.318356	0.804609
	C360	C	0.630701	0.321370	0.783101
	C361	C	0.636823	0.307490	0.761685
	C362	C	0.668447	0.287832	0.787067
	C363	C	0.656292	0.291203	0.763487
	C364	C	0.624640	0.309632	0.738738
	C365	C	0.631110	0.297542	0.717190
	C366	C	0.662945	0.279404	0.741849
	C367	C	0.651363	0.282489	0.718644
	C368	C	0.618354	0.300038	0.693881
	C369	C	0.626467	0.288928	0.673563
	C370	C	0.647056	0.275403	0.674704
	C371	C	0.659280	0.271502	0.696438
	H372	H	0.616650	0.334223	0.781766
	H373	H	0.682649	0.275208	0.788772
	H374	H	0.609801	0.321405	0.737527
	H375	H	0.677835	0.267712	0.743040
	H376	H	0.602882	0.310664	0.692730
	H377	H	0.674756	0.260886	0.697156
	B378	B	0.659014	0.320513	0.842953
	O379	O	0.670746	0.301964	0.830969
	O380	O	0.641864	0.330238	0.827162
	B381	B	0.633412	0.276412	0.635510
	O382	O	0.617771	0.288802	0.649273
	O383	O	0.651321	0.267852	0.650940
	C384	C	0.147029	0.775408	0.674722
	C385	C	0.126442	0.788936	0.673580
	C386	C	0.118327	0.800044	0.693898
	C387	C	0.131080	0.797543	0.717209
	C388	C	0.159249	0.771502	0.696458
	C389	C	0.151331	0.782487	0.718665
	C390	C	0.124608	0.809630	0.738758
	C391	C	0.136785	0.807482	0.761707
	C392	C	0.162908	0.779397	0.741872
	C393	C	0.156252	0.791193	0.763510
	C394	C	0.130660	0.821360	0.783123
	C395	C	0.143411	0.818340	0.804634
	C396	C	0.161698	0.801200	0.806808
	C397	C	0.168401	0.787816	0.787093
	H398	H	0.102857	0.810672	0.692746
	H399	H	0.174724	0.760884	0.697178
	H400	H	0.109771	0.821406	0.737544
	H401	H	0.177798	0.767703	0.743064
	H402	H	0.116611	0.834215	0.781787
	H403	H	0.182602	0.775190	0.788800
	B404	B	0.133389	0.776422	0.635527
	O405	O	0.151295	0.767859	0.650958
	O406	O	0.117749	0.788814	0.649289
	B407	B	0.158960	0.820490	0.842981
	O408	O	0.141814	0.830218	0.827187
	O409	O	0.170692	0.801941	0.830998
	C410	C	0.282531	0.721808	0.053370
	C411	C	0.282352	0.701756	0.035906
	C412	C	0.271962	0.703637	0.012856
	C413	C	0.260889	0.726811	0.006250
	C414	C	0.272333	0.744117	0.048147
	C415	C	0.261074	0.747224	0.024046
	C416	C	0.249795	0.730316	-0.017155
	C417	C	0.238877	0.752748	-0.024039
	C418	C	0.250157	0.769656	0.017161
	C419	C	0.239062	0.773161	-0.006243
	C420	C	0.227618	0.755855	-0.048140
	C421	C	0.217420	0.778164	-0.053363
	C422	C	0.217600	0.798216	-0.035899
	C423	C	0.227990	0.796335	-0.012850
	H424	H	0.271926	0.688281	-0.000295
	H425	H	0.272585	0.759230	0.061583
	H426	H	0.249651	0.715051	-0.030482
	H427	H	0.250300	0.784921	0.030488
	H428	H	0.227364	0.740741	-0.061575
	H429	H	0.228027	0.811691	0.000301
	B430	B	0.301355	0.689710	0.070490
	O431	O	0.294341	0.714158	0.074798
	O432	O	0.294059	0.681881	0.046712
	B433	B	0.198597	0.810262	-0.070483
	O434	O	0.205609	0.785814	-0.074791
	O435	O	0.205893	0.818092	-0.046705
	C436	C	0.351018	0.432214	0.104604
	C437	C	0.337951	0.432029	0.081630
	C438	C	0.332552	0.453458	0.068973
	C439	C	0.339896	0.476897	0.079833
	C440	C	0.359030	0.453691	0.115328
	C441	C	0.353279	0.476955	0.103182
	C442	C	0.333963	0.499982	0.068816
	C443	C	0.339896	0.523069	0.079829
	C444	C	0.359775	0.499985	0.113825
	C445	C	0.353279	0.523014	0.103178
	C446	C	0.332552	0.546507	0.068966
	C447	C	0.337948	0.567937	0.081622
	C448	C	0.351014	0.567754	0.104597
	C449	C	0.359028	0.546279	0.115322
	H450	H	0.322496	0.453172	0.051584
	H451	H	0.368884	0.453556	0.132852
	H452	H	0.323885	0.499981	0.051388
	H453	H	0.369718	0.499986	0.131343
	H454	H	0.322498	0.546790	0.051576
	H455	H	0.368882	0.546417	0.132846
	B456	B	0.340381	0.393162	0.096253
	O457	O	0.352969	0.407960	0.113202
	O458	O	0.332022	0.407506	0.076188
	B459	B	0.340370	0.606805	0.096243
	O460	O	0.332016	0.592459	0.076178
	O461	O	0.352961	0.592010	0.113194
	C462	C	0.834746	0.865454	0.101068
	C463	C	0.841275	0.854827	0.124213
	C464	C	0.834843	0.830492	0.130633
	C465	C	0.821792	0.816525	0.113106
	C466	C	0.815419	0.826283	0.089510
	C467	C	0.821840	0.850893	0.083887
	H468	H	0.816603	0.797723	0.117900
	H469	H	0.816642	0.858874	0.065932
	H470	H	0.851153	0.865906	0.137747
	C471	C	0.684608	0.326277	0.910471
	C472	C	0.678237	0.316521	0.886874
	C473	C	0.665187	0.330490	0.869347
	C474	C	0.658753	0.354824	0.875768
	C475	C	0.665281	0.365448	0.898915
	C476	C	0.678186	0.350887	0.916096
	H477	H	0.648876	0.365904	0.862234
	H478	H	0.683383	0.358866	0.934051
	H479	H	0.683426	0.297719	0.882079
	C480	C	0.149283	0.766793	0.567692
	C481	C	0.150540	0.768583	0.593742
	C482	C	0.131472	0.773534	0.606990
	C483	C	0.110751	0.776417	0.593609
	C484	C	0.108802	0.774336	0.567588
	C485	C	0.128269	0.769684	0.554928
	H486	H	0.095878	0.780223	0.603634
	H487	H	0.127035	0.768231	0.534793
	H488	H	0.166671	0.766387	0.603865
	C489	C	0.334738	0.634552	0.101062
	C490	C	0.341263	0.645178	0.124209
	C491	C	0.334826	0.669510	0.130630
	C492	C	0.321776	0.683478	0.113102
	C493	C	0.315409	0.673721	0.089504
	C494	C	0.321833	0.649113	0.083880
	H495	H	0.316585	0.702279	0.117896
	H496	H	0.316638	0.641133	0.065924
	H497	H	0.351140	0.634099	0.137744
	C498	C	0.852943	0.775421	0.325285
	C499	C	0.873531	0.788947	0.326428
	C500	C	0.881647	0.800055	0.306109
	C501	C	0.868894	0.797554	0.282798
	C502	C	0.840723	0.771516	0.303549
	C503	C	0.848642	0.782500	0.281341
	C504	C	0.875368	0.809641	0.261249
	C505	C	0.863191	0.807495	0.238300
	C506	C	0.837066	0.779411	0.258134
	C507	C	0.843723	0.791208	0.236496
	C508	C	0.869317	0.821373	0.216885
	C509	C	0.856566	0.818357	0.195374
	C510	C	0.838277	0.801219	0.193199
	C511	C	0.831572	0.787835	0.212913
	H512	H	0.897117	0.810682	0.307262
	H513	H	0.825248	0.760900	0.302829
	H514	H	0.890207	0.821414	0.262463
	H515	H	0.822176	0.767718	0.256942
	H516	H	0.883367	0.834227	0.218222
	H517	H	0.817370	0.775212	0.211206
	B518	B	0.866583	0.776433	0.364481
	O519	O	0.848677	0.767872	0.349049
	O520	O	0.882224	0.788824	0.350718
	B521	B	0.841015	0.820512	0.157027
	O522	O	0.858163	0.830236	0.172821
	O523	O	0.829281	0.801963	0.169009
	C524	C	0.717443	0.721839	-0.053369
	C525	C	0.717624	0.701785	-0.035908
	C526	C	0.728014	0.703664	-0.012858
	C527	C	0.739085	0.726838	-0.006249
	C528	C	0.727641	0.744147	-0.048145
	C529	C	0.738899	0.747253	-0.024043
	C530	C	0.750178	0.730342	0.017156
	C531	C	0.761093	0.752776	0.024044
	C532	C	0.749814	0.769686	-0.017156
	C533	C	0.760906	0.773190	0.006250
	C534	C	0.772350	0.755883	0.048146
	C535	C	0.782545	0.778193	0.053372
	C536	C	0.782363	0.798247	0.035910
	C537	C	0.771975	0.796366	0.012859
	H538	H	0.728051	0.688307	0.000291
	H539	H	0.727387	0.759263	-0.061579
	H540	H	0.750323	0.715076	0.030482
	H541	H	0.749670	0.784952	-0.030482
	H542	H	0.772605	0.740768	0.061580
	H543	H	0.771937	0.811723	-0.000290
	B544	B	0.698618	0.689743	-0.070492
	O545	O	0.705632	0.714191	-0.074798
	O546	O	0.705916	0.681911	-0.046716
	B547	B	0.801365	0.810293	0.070496
	O548	O	0.794353	0.785844	0.074801
	O549	O	0.794067	0.818124	0.046718
	C550	C	0.648999	0.432244	0.895382
	C551	C	0.662068	0.432063	0.918354
	C552	C	0.667464	0.453493	0.931010
	C553	C	0.660113	0.476929	0.920150
	C554	C	0.640980	0.453719	0.884659
	C555	C	0.646726	0.476984	0.896804
	C556	C	0.666044	0.500016	0.931165
	C557	C	0.660104	0.523101	0.920152
	C558	C	0.640224	0.500013	0.886161
	C559	C	0.646717	0.523043	0.896806
	C560	C	0.667447	0.546539	0.931015
	C561	C	0.662043	0.567968	0.918361
	C562	C	0.648973	0.567785	0.895389
	C563	C	0.640962	0.546308	0.884664
	H564	H	0.677522	0.453210	0.948397
	H565	H	0.631123	0.453580	0.867137
	H566	H	0.676125	0.500017	0.948591
	H567	H	0.630278	0.500012	0.868645
	H568	H	0.677505	0.546824	0.948402
	H569	H	0.631105	0.546445	0.867142
	B570	B	0.659649	0.393195	0.903733
	O571	O	0.647054	0.407989	0.886785
	O572	O	0.668005	0.407541	0.923797
	B573	B	0.659611	0.606837	0.903744
	O574	O	0.667972	0.592491	0.923807
	O575	O	0.647020	0.592041	0.886795
	C576	C	-0.049003	0.778788	0.454834
	C577	C	-0.059693	0.778011	0.477771
	C578	C	-0.047945	0.778396	0.500144
	C579	C	-0.023900	0.779135	0.500251
	C580	C	-0.026336	0.779469	0.453813
	C581	C	-0.013000	0.779399	0.476888
	C582	C	-0.010522	0.779381	0.522523
	C583	C	0.012976	0.779403	0.523118
	C584	C	0.010498	0.779378	0.477483
	C585	C	0.023876	0.779136	0.499754
	C586	C	0.026312	0.779477	0.546192
	C587	C	0.048979	0.778796	0.545172
	C588	C	0.059669	0.778016	0.522235
	C589	C	0.047921	0.778398	0.499863
	H590	H	-0.056254	0.777901	0.517475
	H591	H	-0.018375	0.779883	0.436264
	H592	H	-0.018681	0.779356	0.540004
	H593	H	0.018657	0.779351	0.460002
	H594	H	0.018351	0.779893	0.563742
	H595	H	0.056230	0.777901	0.482531
	B596	B	-0.085808	0.776722	0.446767
	O597	O	-0.065367	0.778363	0.435677
	O598	O	-0.082554	0.776783	0.472585
	B599	B	0.085783	0.776729	0.553240
	O600	O	0.065342	0.778372	0.564329
	O601	O	0.082529	0.776789	0.527422
	C602	C	0.206256	0.757179	0.545256
	C603	C	0.193074	0.757707	0.522362
	C604	C	0.202286	0.755559	0.499983
	C605	C	0.226192	0.752739	0.499814
	C606	C	0.228910	0.754493	0.546220
	C607	C	0.239618	0.752202	0.523130
	C608	C	0.237040	0.750512	0.477526
	C609	C	0.260344	0.747786	0.476869
	C610	C	0.262921	0.749476	0.522472
	C611	C	0.273769	0.747249	0.500184
	C612	C	0.271053	0.745494	0.453779
	C613	C	0.293707	0.742810	0.454744
	C614	C	0.306888	0.742283	0.477638
	C615	C	0.297676	0.744430	0.500017
	H616	H	0.192101	0.756008	0.482685
	H617	H	0.238774	0.754139	0.563735
	H618	H	0.226994	0.750915	0.460081
	H619	H	0.272967	0.749073	0.539917
	H620	H	0.261190	0.745848	0.436264
	H621	H	0.307859	0.743981	0.517315
	B622	B	0.170555	0.762312	0.553379
	O623	O	0.192117	0.759904	0.564430
	O624	O	0.170908	0.760754	0.527590
	B625	B	0.329410	0.737680	0.446623
	O626	O	0.307847	0.740086	0.435571
	O627	O	0.329055	0.739238	0.472412
	C628	C	0.352933	0.724588	0.325282
	C629	C	0.373519	0.711059	0.326424
	C630	C	0.381631	0.699947	0.306106
	C631	C	0.368877	0.702447	0.282796
	C632	C	0.340711	0.728492	0.303546
	C633	C	0.348626	0.717504	0.281340
	C634	C	0.375347	0.690357	0.261248
	C635	C	0.363169	0.692504	0.238299
	C636	C	0.337048	0.720592	0.258133
	C637	C	0.343703	0.708793	0.236495
	C638	C	0.369294	0.678624	0.216884
	C639	C	0.356543	0.681642	0.195373
	C640	C	0.338256	0.698782	0.193198
	C641	C	0.331553	0.712167	0.212912
	H642	H	0.397100	0.689318	0.307258
	H643	H	0.325236	0.739110	0.302827
	H644	H	0.390185	0.678582	0.262461
	H645	H	0.322159	0.732287	0.256941
	H646	H	0.383343	0.665769	0.218221
	H647	H	0.317352	0.724793	0.211204
	B648	B	0.366576	0.723577	0.364477
	O649	O	0.348669	0.732141	0.349046
	O650	O	0.382215	0.711184	0.350714
	B651	B	0.340994	0.679489	0.157026
	O652	O	0.358140	0.669762	0.172820
	O653	O	0.329261	0.698038	0.169008
	C654	C	0.891172	0.774334	0.432419
	C655	C	0.889223	0.776420	0.406398
	C656	C	0.868501	0.773541	0.393017
	C657	C	0.849433	0.768592	0.406265
	C658	C	0.850690	0.766797	0.432315
	C659	C	0.871704	0.769683	0.445079
	H660	H	0.833302	0.766400	0.396142
	H661	H	0.872939	0.768226	0.465213
	H662	H	0.904097	0.780225	0.396373
	C663	C	0.665237	0.634586	0.898930
	C664	C	0.658710	0.645214	0.875785
	C665	C	0.665142	0.669549	0.869368
	C666	C	0.678192	0.683516	0.886896
	C667	C	0.684563	0.673756	0.910492
	C668	C	0.678141	0.649146	0.916114
	H669	H	0.683380	0.702318	0.882104
	H670	H	0.683338	0.641164	0.934068
	H671	H	0.648834	0.634135	0.862249
	C672	C	0.350683	0.733203	0.432312
	C673	C	0.349427	0.731413	0.406262
	C674	C	0.368495	0.726466	0.393013
	C675	C	0.389216	0.723585	0.406395
	C676	C	0.391165	0.725665	0.432416
	C677	C	0.371697	0.730314	0.445076
	H678	H	0.404090	0.719782	0.396369
	H679	H	0.372931	0.731767	0.465211
	H680	H	0.333295	0.733607	0.396139
	C681	C	0.793714	0.757186	0.454744
	C682	C	0.806893	0.757713	0.477639
	C683	C	0.797679	0.755568	0.500016
	C684	C	0.773772	0.752750	0.500182
	C685	C	0.771059	0.754501	0.453776
	C686	C	0.760348	0.752211	0.476865
	C687	C	0.762922	0.750525	0.522469
	C688	C	0.739618	0.747801	0.523124
	C689	C	0.737044	0.749485	0.477521
	C690	C	0.726194	0.747261	0.499808
	C691	C	0.728908	0.745512	0.546213
	C692	C	0.706253	0.742829	0.545247
	C693	C	0.693074	0.742299	0.522353
	C694	C	0.702287	0.744443	0.499974
	H695	H	0.807861	0.756017	0.517316
	H696	H	0.761197	0.754148	0.436260
	H697	H	0.772966	0.750929	0.539915
	H698	H	0.727000	0.749082	0.460075
	H699	H	0.738770	0.745867	0.563729
	H700	H	0.692104	0.743992	0.482675
	B701	B	0.829416	0.762317	0.446625
	O702	O	0.807855	0.759910	0.435572
	O703	O	0.829061	0.760759	0.472413
	B704	B	0.670552	0.737700	0.553369
	O705	O	0.692114	0.740108	0.564420
	O706	O	0.670906	0.739256	0.527580
	C707	C	0.647032	0.724618	0.674715
	C708	C	0.626447	0.711086	0.673574
	C709	C	0.618335	0.699976	0.693893
	C710	C	0.631089	0.702478	0.717203
	C711	C	0.659253	0.728525	0.696451
	C712	C	0.651338	0.717538	0.718658
	C713	C	0.624619	0.690388	0.738751
	C714	C	0.636796	0.692537	0.761700
	C715	C	0.662915	0.720627	0.741865
	C716	C	0.656261	0.708829	0.763503
	C717	C	0.630673	0.678657	0.783115
	C718	C	0.643423	0.681677	0.804626
	C719	C	0.661708	0.698820	0.806801
	C720	C	0.668411	0.712204	0.787086
	H721	H	0.602867	0.689344	0.692741
	H722	H	0.674726	0.739145	0.697170
	H723	H	0.609782	0.678611	0.737538
	H724	H	0.677803	0.732325	0.743057
	H725	H	0.616626	0.665799	0.781778
	H726	H	0.682612	0.724830	0.788793
	B727	B	0.633390	0.723602	0.635520
	O728	O	0.651296	0.732168	0.650951
	O729	O	0.617752	0.711207	0.649284
	B730	B	0.658972	0.679528	0.842973
	O731	O	0.641826	0.669799	0.827179
	O732	O	0.670703	0.698079	0.830991
	C733	C	0.548973	0.721222	0.545171
	C734	C	0.559663	0.721999	0.522233
	C735	C	0.547914	0.721613	0.499861
	C736	C	0.523869	0.720873	0.499753
	C737	C	0.526306	0.720539	0.546191
	C738	C	0.512969	0.720608	0.523117
	C739	C	0.510491	0.720626	0.477482
	C740	C	0.486993	0.720603	0.476887
	C741	C	0.489471	0.720627	0.522522
	C742	C	0.476092	0.720869	0.500251
	C743	C	0.473657	0.720529	0.453813
	C744	C	0.450989	0.721209	0.454833
	C745	C	0.440299	0.721988	0.477770
	C746	C	0.452048	0.721606	0.500142
	H747	H	0.556222	0.722107	0.482529
	H748	H	0.518345	0.720125	0.563741
	H749	H	0.518650	0.720652	0.460001
	H750	H	0.481312	0.720654	0.540003
	H751	H	0.481618	0.720114	0.436263
	H752	H	0.443739	0.722101	0.517474
	B753	B	0.585778	0.723291	0.553237
	O754	O	0.565337	0.721649	0.564327
	O755	O	0.582523	0.723228	0.527418
	B756	B	0.414185	0.723275	0.446765
	O757	O	0.434626	0.721634	0.435676
	O758	O	0.417439	0.723214	0.472583
	C759	C	0.649279	0.733223	0.567682
	C760	C	0.650538	0.731436	0.593733
	C761	C	0.631471	0.726488	0.606983
	C762	C	0.610749	0.723605	0.593604
	C763	C	0.608798	0.725684	0.567583
	C764	C	0.628265	0.730333	0.554920
	H765	H	0.595876	0.719800	0.603631
	H766	H	0.627029	0.731785	0.534786
	H767	H	0.666669	0.733631	0.603854
