data_Molecule from CHK

_cell_length_a		131.124126
_cell_length_b		119.424860
_cell_length_c		86.803682
_cell_angle_alpha	89.708568
_cell_angle_beta	115.607411
_cell_angle_gamma	90.067015
_symmetry_space_group_name_H-M	'P 1'
_symmetry_Int_Tables_number		1

loop_
	_symmetry_equiv_pos_as_xyz
	x,y,z

loop_
	_atom_site_label
	_atom_site_type_symbol
	_atom_site_fract_x
	_atom_site_fract_y
	_atom_site_fract_z
	N0	N	0.543765	0.405167	0.104359
	C1	C	0.547865	0.398346	0.118768
	C2	C	0.543053	0.402768	0.129312
	N3	N	0.536575	0.412060	0.121522
	C4	C	0.545442	0.397833	0.145409
	C5	C	0.540747	0.402080	0.157134
	C6	C	0.552628	0.388504	0.149673
	H7	H	0.554620	0.384271	0.161703
	C8	C	0.556969	0.384064	0.138765
	H9	H	0.562153	0.376580	0.142704
	C10	C	0.554518	0.388627	0.122667
	C11	C	0.558889	0.383769	0.110983
	C12	C	0.547102	0.401871	0.174973
	C13	C	0.570347	0.381002	0.116608
	C14	C	0.551664	0.381551	0.093820
	C15	C	0.529691	0.406346	0.150887
	C16	C	0.525122	0.409876	0.161874
	H17	H	0.524631	0.406855	0.137203
	C18	C	0.555739	0.376883	0.082889
	H19	H	0.542697	0.383261	0.089131
	C20	C	0.531360	0.409382	0.179693
	H21	H	0.516646	0.413310	0.156645
	C22	C	0.542526	0.405487	0.185896
	H23	H	0.555772	0.398969	0.180340
	C24	C	0.574389	0.376326	0.105613
	H25	H	0.576170	0.382750	0.129745
	C26	C	0.567185	0.374067	0.088443
	H27	H	0.550025	0.375118	0.069695
	H28	H	0.583334	0.374615	0.110414
	H29	H	0.547501	0.405294	0.199650
	C30	C	0.537323	0.413445	0.107000
	H31	H	0.545185	0.404396	0.093865
	C32	C	0.531710	0.422286	0.094296
	C33	C	0.521197	0.426533	0.092051
	C34	C	0.515905	0.434984	0.080136
	H35	H	0.517277	0.423118	0.099789
	C36	C	0.536822	0.426920	0.084487
	C37	C	0.520811	0.439548	0.069980
	H38	H	0.507780	0.438289	0.078434
	C39	C	0.531453	0.435369	0.072601
	H40	H	0.545135	0.424042	0.086476
	H41	H	0.535704	0.439043	0.065544
	C42	C	0.526623	0.412881	0.192256
	O43	O	0.532854	0.415853	0.207125
	C44	C	0.514474	0.412171	0.186553
	C45	C	0.508810	0.415363	0.196084
	H46	H	0.509533	0.407849	0.174652
	N47	N	0.513095	0.420894	0.211163
	H48	H	0.499828	0.413529	0.190953
	H49	H	0.521744	0.422287	0.215716
	C50	C	0.570943	0.368810	0.075632
	O51	O	0.564471	0.368521	0.060080
	C52	C	0.582151	0.363943	0.081839
	C53	C	0.586589	0.359003	0.071636
	H54	H	0.587491	0.363644	0.095458
	N55	N	0.581663	0.358010	0.054423
	H56	H	0.595054	0.355453	0.077863
	H57	H	0.573191	0.360343	0.049122
	C58	C	0.514744	0.449013	0.057306
	O59	O	0.506869	0.454412	0.058109
	C60	C	0.518465	0.451646	0.044237
	C61	C	0.515705	0.461344	0.034446
	H62	H	0.523240	0.445374	0.041100
	N63	N	0.509825	0.470253	0.035918
	H64	H	0.518719	0.462191	0.024635
	H65	H	0.505942	0.468560	0.043894
	C66	C	0.485541	0.420817	0.283973
	C67	C	0.497186	0.422258	0.289137
	C68	C	0.501803	0.422450	0.277252
	C69	C	0.494553	0.421404	0.259477
	C70	C	0.482687	0.420227	0.254151
	C71	C	0.478414	0.419963	0.266431
	H72	H	0.502788	0.423402	0.302528
	H73	H	0.469393	0.418935	0.262389
	C74	C	0.499089	0.421491	0.247243
	C75	C	0.510969	0.422533	0.252585
	C76	C	0.515282	0.422398	0.240354
	C77	C	0.508186	0.421246	0.222848
	C78	C	0.496469	0.420516	0.217597
	C79	C	0.491834	0.420500	0.229460
	H80	H	0.524340	0.423076	0.244439
	H81	H	0.490799	0.420095	0.204118
	C82	C	0.475524	0.419372	0.236107
	C83	C	0.479856	0.419537	0.224399
	H84	H	0.466481	0.418584	0.231984
	H85	H	0.474278	0.418872	0.210889
	C86	C	0.513751	0.423706	0.282281
	C87	C	0.518099	0.423712	0.270592
	H88	H	0.519306	0.424599	0.295763
	H89	H	0.527130	0.424615	0.274701
	C90	C	0.602013	0.311600	-0.001253
	C91	C	0.590524	0.313357	-0.005476
	C92	C	0.587040	0.321082	0.003404
	C93	C	0.595313	0.327235	0.017198
	C94	C	0.606999	0.325377	0.021637
	C95	C	0.610145	0.317636	0.012351
	H96	H	0.584236	0.308689	-0.016006
	H97	H	0.619043	0.316024	0.016128
	C98	C	0.591954	0.335024	0.026499
	C99	C	0.580264	0.336883	0.022029
	C100	C	0.577128	0.344599	0.031338
	C101	C	0.585250	0.350444	0.045212
	C102	C	0.596744	0.348685	0.049503
	C103	C	0.600220	0.341092	0.040422
	H104	H	0.568235	0.345995	0.027980
	H105	H	0.603051	0.353506	0.059756
	C106	C	0.615173	0.331670	0.035667
	C107	C	0.611960	0.339124	0.044562
	H108	H	0.624069	0.330329	0.039065
	H109	H	0.618284	0.343751	0.055077
	C110	C	0.575295	0.323143	-0.000886
	C111	C	0.572081	0.330661	0.007919
	H112	H	0.568975	0.318534	-0.011434
	H113	H	0.563182	0.332069	0.004440
	C114	C	0.506593	0.479748	0.024969
	C115	C	0.513076	0.483622	0.016722
	C116	C	0.509990	0.493257	0.006386
	C117	C	0.500077	0.499319	0.004149
	C118	C	0.493472	0.495402	0.012508
	C119	C	0.496858	0.485755	0.022781
	H120	H	0.520863	0.479367	0.018810
	H121	H	0.491853	0.482774	0.029181
	C122	C	0.496927	0.509226	-0.006039
	C123	C	0.503655	0.513253	-0.014127
	C124	C	0.500543	0.523158	-0.023806
	C125	C	0.490881	0.529246	-0.025848
	C126	C	0.484246	0.525244	-0.017928
	C127	C	0.487099	0.515379	-0.008095
	H128	H	0.505684	0.526250	-0.029919
	H129	H	0.476992	0.530034	-0.018845
	C130	C	0.483533	0.501710	0.010108
	C131	C	0.480510	0.511176	0.000339
	H132	H	0.478447	0.498736	0.016364
	H133	H	0.473001	0.515783	-0.001220
	C134	C	0.516574	0.497443	-0.002066
	C135	C	0.513569	0.506924	-0.011795
	H136	H	0.524096	0.492847	-0.000476
	H137	H	0.518677	0.509923	-0.018000
	N138	N	0.453438	0.407032	0.406779
	C139	C	0.450764	0.398808	0.394398
	C140	C	0.454719	0.403088	0.382654
	N141	N	0.459320	0.413596	0.387779
	C142	C	0.453358	0.396854	0.368029
	C143	C	0.457188	0.400901	0.355130
	C144	C	0.448094	0.386432	0.366459
	H145	H	0.446996	0.381203	0.355692
	C146	C	0.444631	0.382213	0.378577
	H147	H	0.440996	0.373892	0.376783
	C148	C	0.446084	0.388107	0.393273
	C149	C	0.442619	0.383550	0.406239
	C150	C	0.451014	0.398628	0.337629
	C151	C	0.432019	0.378519	0.401588
	C152	C	0.449948	0.383830	0.423743
	C153	C	0.467221	0.407070	0.359906
	C154	C	0.471040	0.410488	0.347925
	H155	H	0.472078	0.409172	0.373235
	C156	C	0.446712	0.379533	0.435914
	H157	H	0.458394	0.387200	0.427802
	C158	C	0.465027	0.407971	0.330512
	H159	H	0.478696	0.415410	0.351984
	C160	C	0.454824	0.402135	0.325688
	H161	H	0.443066	0.394185	0.333305
	C162	C	0.428820	0.374212	0.413819
	H163	H	0.426171	0.378126	0.388163
	C164	C	0.436038	0.374695	0.431360
	H165	H	0.452507	0.379724	0.449389
	H166	H	0.420631	0.370278	0.409633
	H167	H	0.449993	0.400346	0.312206
	C168	C	0.458314	0.415801	0.401891
	H169	H	0.452109	0.406820	0.417404
	C170	C	0.461998	0.426139	0.411912
	C171	C	0.471681	0.431797	0.413113
	C172	C	0.475186	0.441619	0.422541
	H173	H	0.476400	0.428359	0.406599
	C174	C	0.455938	0.430665	0.420348
	C175	C	0.469154	0.446310	0.430930
	H176	H	0.482690	0.445988	0.423477
	C177	C	0.459503	0.440515	0.429703
	H178	H	0.448342	0.426502	0.419384
	H179	H	0.454832	0.443684	0.436419
	C180	C	0.469008	0.411318	0.316965
	O181	O	0.462327	0.412376	0.301594
	C182	C	0.481069	0.412808	0.322459
	C183	C	0.486011	0.416286	0.312022
	H184	H	0.486757	0.410005	0.335231
	N185	N	0.480730	0.420200	0.295772
	H186	H	0.495185	0.416171	0.317331
	H187	H	0.471970	0.419932	0.291123
	C188	C	0.433133	0.370058	0.445492
	O189	O	0.440509	0.369043	0.460480
	C190	C	0.421571	0.366823	0.441241
	C191	C	0.418083	0.361501	0.452375
	H192	H	0.414950	0.369148	0.428883
	N193	N	0.424632	0.357907	0.468470
	H194	H	0.409107	0.359808	0.447933
	H195	H	0.433203	0.358507	0.471501
	C196	C	0.473346	0.457249	0.440899
	O197	O	0.483213	0.460613	0.445427
	C198	C	0.465444	0.463785	0.444766
	C199	C	0.468072	0.473605	0.454119
	H200	H	0.456606	0.461368	0.439116
	N201	N	0.478308	0.478573	0.462019
	H202	H	0.461240	0.477947	0.455523
	H203	H	0.484770	0.473489	0.462087
	N204	N	0.632586	0.257086	0.924645
	C205	C	0.632378	0.250837	0.911047
	C206	C	0.620854	0.250963	0.898863
	N207	N	0.614688	0.257711	0.904600
	C208	C	0.617117	0.244458	0.883787
	C209	C	0.605127	0.244230	0.870685
	C210	C	0.625519	0.237986	0.882239
	H211	H	0.623251	0.233017	0.870824
	C212	C	0.636828	0.237857	0.894576
	H213	H	0.642872	0.232796	0.892249
	C214	C	0.640734	0.244256	0.909500
	C215	C	0.652737	0.244166	0.922399
	C216	C	0.600156	0.234418	0.861667
	C217	C	0.658984	0.234172	0.927341
	C218	C	0.658404	0.254077	0.930052
	C219	C	0.598207	0.253790	0.866848
	C220	C	0.587005	0.253596	0.854526
	H221	H	0.601685	0.261467	0.873709
	C222	C	0.669686	0.253953	0.942068
	H223	H	0.653978	0.262006	0.926226
	C224	C	0.582090	0.243844	0.845348
	H225	H	0.581846	0.261049	0.852205
	C226	C	0.588942	0.234254	0.849419
	H227	H	0.605059	0.226768	0.864494
	C228	C	0.670289	0.234091	0.939294
	H229	H	0.654816	0.226329	0.921979
	C230	C	0.675978	0.243995	0.946890
	H231	H	0.674007	0.261667	0.947809
	H232	H	0.674724	0.226188	0.943205
	H233	H	0.585175	0.226615	0.842605
	C234	C	0.621808	0.261322	0.919750
	H235	H	0.638879	0.257353	0.936622
	C236	C	0.618835	0.268571	0.930842
	C237	C	0.607766	0.268480	0.929383
	C238	C	0.604759	0.275239	0.939778
	H239	H	0.601570	0.263064	0.919955
	C240	C	0.626743	0.275661	0.943002
	C241	C	0.612557	0.282415	0.951983
	H242	H	0.596177	0.275118	0.938594
	C243	C	0.623636	0.282401	0.953354
	H244	H	0.635291	0.276022	0.944125
	H245	H	0.629963	0.287622	0.962836
	C246	C	0.569829	0.243190	0.831801
	O247	O	0.564698	0.234114	0.827444
	C248	C	0.564236	0.253536	0.823698
	C249	C	0.552807	0.254537	0.813041
	H250	H	0.569471	0.260824	0.824854
	N251	N	0.544704	0.246653	0.809837
	H252	H	0.549754	0.262547	0.806750
	H253	H	0.548082	0.238984	0.815446
	C254	C	0.688401	0.244363	0.959983
	O255	O	0.692331	0.252409	0.969883
	C256	C	0.695631	0.235092	0.960373
	C257	C	0.706731	0.233666	0.972358
	H258	H	0.692536	0.229209	0.949853
	N259	N	0.712547	0.239883	0.986453
	H260	H	0.711448	0.226689	0.970633
	H261	H	0.708077	0.246981	0.986840
	C262	C	0.608575	0.289562	0.963010
	O263	O	0.599251	0.287849	0.963188
	C264	C	0.615793	0.298480	0.973258
	C265	C	0.613690	0.304822	0.984917
	H266	H	0.623115	0.300891	0.971288
	N267	N	0.605090	0.303628	0.989462
	H268	H	0.619592	0.311491	0.991564
	H269	H	0.598964	0.298098	0.981523
	N270	N	0.470176	0.613827	0.924664
	C271	C	0.470009	0.624059	0.916914
	C272	C	0.473481	0.621567	0.903896
	N273	N	0.475741	0.610255	0.904147
	C274	C	0.474596	0.630220	0.893487
	C275	C	0.478629	0.628345	0.880089
	C276	C	0.471695	0.640946	0.896737
	H277	H	0.472130	0.647854	0.888903
	C278	C	0.467817	0.643110	0.909186
	H279	H	0.465367	0.651585	0.910520
	C280	C	0.466610	0.634720	0.919587
	C281	C	0.462545	0.637050	0.932784
	C282	C	0.485706	0.636141	0.877300
	C283	C	0.466546	0.646261	0.943767
	C284	C	0.454349	0.630309	0.934609
	C285	C	0.475525	0.618833	0.869596
	C286	C	0.478996	0.617387	0.856635
	H287	H	0.470296	0.612533	0.871680
	C288	C	0.450563	0.632560	0.947011
	H289	H	0.450711	0.623388	0.925905
	C290	C	0.485825	0.625318	0.853569
	H291	H	0.476608	0.609885	0.848933
	C292	C	0.489236	0.634606	0.864459
	H293	H	0.488589	0.643419	0.885431
	C294	C	0.462727	0.648488	0.956146
	H295	H	0.472871	0.651657	0.942698
	C296	C	0.454708	0.641629	0.958248
	H297	H	0.444152	0.627343	0.948190
	H298	H	0.465915	0.655781	0.964138
	H299	H	0.494700	0.640680	0.862419
	C300	C	0.473681	0.605867	0.916446
	H301	H	0.469479	0.612540	0.935688
	C302	C	0.475581	0.594136	0.922203
	C303	C	0.484452	0.588043	0.921364
	C304	C	0.486652	0.577085	0.927473
	H305	H	0.489593	0.592048	0.915930
	C306	C	0.468893	0.588843	0.929052
	C307	C	0.480110	0.571702	0.934528
	H308	H	0.493584	0.572417	0.926940
	C309	C	0.471161	0.577863	0.935109
	H310	H	0.461830	0.593336	0.929428
	H311	H	0.466066	0.574055	0.940730
	C312	C	0.489689	0.624386	0.839333
	O313	O	0.498366	0.629193	0.840224
	C314	C	0.482632	0.618175	0.824082
	C315	C	0.484679	0.617437	0.809746
	H316	H	0.474656	0.614840	0.823020
	N317	N	0.493980	0.621066	0.808168
	H318	H	0.478370	0.613451	0.798372
	H319	H	0.500680	0.622599	0.820032
	C320	C	0.450125	0.643689	0.971528
	O321	O	0.441535	0.638778	0.970788
	C322	C	0.456010	0.651551	0.985177
	C323	C	0.452138	0.655215	0.996825
	H324	H	0.464328	0.654463	0.987214
	N325	N	0.442225	0.652663	0.997315
	H326	H	0.457490	0.660926	1.006752
	H327	H	0.436920	0.648107	0.986668
	C328	C	0.483278	0.559787	0.941706
	O329	O	0.492540	0.555528	0.944222
	C330	C	0.475326	0.553523	0.945865
	C331	C	0.478027	0.543993	0.956047
	H332	H	0.466487	0.555963	0.939868
	N333	N	0.488410	0.539416	0.964747
	H334	H	0.471262	0.539732	0.957774
	H335	H	0.494378	0.542921	0.961268
	C336	C	0.404846	0.312142	0.526232
	C337	C	0.415799	0.311852	0.527156
	C338	C	0.419195	0.319374	0.517815
	C339	C	0.411356	0.327466	0.506957
	C340	C	0.400179	0.327695	0.505837
	C341	C	0.397118	0.320059	0.515454
	H342	H	0.421777	0.305724	0.535485
	H343	H	0.388510	0.320077	0.514125
	C344	C	0.414617	0.335135	0.497290
	C345	C	0.425802	0.334906	0.498448
	C346	C	0.428861	0.342561	0.488875
	C347	C	0.421115	0.350410	0.477942
	C348	C	0.410140	0.350683	0.476920
	C349	C	0.406767	0.343190	0.486348
	H350	H	0.437371	0.342386	0.489747
	H351	H	0.404233	0.357008	0.469067
	C352	C	0.392426	0.335932	0.494733
	C353	C	0.395553	0.343286	0.485517
	H354	H	0.383924	0.336172	0.493856
	H355	H	0.389554	0.349411	0.477263
	C356	C	0.430439	0.319327	0.518766
	C357	C	0.433580	0.326710	0.509607
	H358	H	0.436443	0.313220	0.527064
	H359	H	0.442100	0.326515	0.510553
	C360	C	0.480792	0.487812	0.473269
	C361	C	0.472683	0.496029	0.471374
	C362	C	0.475241	0.505159	0.482532
	C363	C	0.486328	0.506245	0.496054
	C364	C	0.494614	0.497959	0.497930
	C365	C	0.491727	0.488956	0.486498
	H366	H	0.464352	0.495555	0.460778
	H367	H	0.498023	0.482640	0.487914
	C368	C	0.489105	0.515511	0.507401
	C369	C	0.480822	0.523813	0.505470
	C370	C	0.483729	0.532924	0.516699
	C371	C	0.494691	0.534135	0.529817
	C372	C	0.502771	0.525848	0.531891
	C373	C	0.500197	0.516617	0.520911
	H374	H	0.477268	0.538990	0.515436
	H375	H	0.511228	0.526743	0.542109
	C376	C	0.505752	0.499273	0.511667
	C377	C	0.508393	0.508106	0.522578
	H378	H	0.512085	0.492989	0.513179
	H379	H	0.516843	0.508899	0.532822
	C380	C	0.467034	0.513661	0.480859
	C381	C	0.469672	0.522490	0.491765
	H382	H	0.458586	0.512870	0.470614
	H383	H	0.463339	0.528772	0.490250
	C384	C	0.477293	0.247115	0.730871
	C385	C	0.482910	0.237006	0.737796
	C386	C	0.494000	0.236808	0.750752
	C387	C	0.499795	0.247089	0.757149
	C388	C	0.494163	0.257372	0.750062
	C389	C	0.483080	0.257218	0.737033
	H390	H	0.478463	0.229182	0.733020
	H391	H	0.479073	0.265096	0.731445
	C392	C	0.511049	0.247080	0.770328
	C393	C	0.516694	0.236790	0.777329
	C394	C	0.527772	0.236969	0.790314
	C395	C	0.533530	0.247068	0.796674
	C396	C	0.527903	0.257185	0.789877
	C397	C	0.516840	0.257355	0.776788
	H398	H	0.532090	0.229133	0.795590
	H399	H	0.532018	0.265077	0.794993
	C400	C	0.500207	0.267637	0.756782
	C401	C	0.510936	0.267630	0.769490
	H402	H	0.495965	0.275488	0.751481
	H403	H	0.515287	0.275475	0.774345
	C404	C	0.499880	0.226530	0.758069
	C405	C	0.510646	0.226521	0.770668
	H406	H	0.495499	0.218690	0.753266
	H407	H	0.514902	0.218674	0.775967
	C408	C	0.784148	0.239471	0.044988
	C409	C	0.777860	0.249343	0.042871
	C410	C	0.766070	0.249527	0.033420
	C411	C	0.760250	0.239486	0.025690
	C412	C	0.766611	0.229459	0.027721
	C413	C	0.778402	0.229622	0.037248
	H414	H	0.782298	0.256966	0.048838
	H415	H	0.783143	0.222026	0.038172
	C416	C	0.748292	0.239500	0.015953
	C417	C	0.741942	0.249546	0.013834
	C418	C	0.730172	0.249383	0.004143
	C419	C	0.724440	0.239551	-0.003701
	C420	C	0.730688	0.229640	-0.001385
	C421	C	0.742476	0.229466	0.008180
	H422	H	0.725339	0.257040	0.002445
	H423	H	0.726342	0.221876	-0.006728
	C424	C	0.760527	0.219429	0.019797
	C425	C	0.749083	0.219424	0.010578
	H426	H	0.765312	0.211765	0.021368
	H427	H	0.744707	0.211757	0.004757
	C428	C	0.759452	0.259543	0.031174
	C429	C	0.748011	0.259551	0.021895
	H430	H	0.763833	0.267187	0.037101
	H431	H	0.743221	0.267205	0.020378
	C432	C	0.506628	0.621192	0.719868
	C433	C	0.515472	0.619430	0.736168
	C434	C	0.513462	0.618913	0.750777
	C435	C	0.502196	0.619977	0.749113
	C436	C	0.493175	0.621579	0.732523
	C437	C	0.495547	0.622211	0.718259
	H438	H	0.524097	0.619015	0.737601
	H439	H	0.488722	0.623564	0.705640
	C440	C	0.500023	0.619769	0.763827
	C441	C	0.509098	0.618635	0.780476
	C442	C	0.506832	0.618906	0.794852
	C443	C	0.495779	0.620159	0.793271
	C444	C	0.486837	0.621080	0.776864
	C445	C	0.488778	0.621015	0.762184
	H446	H	0.513728	0.618164	0.807549
	H447	H	0.478321	0.622430	0.775539
	C448	C	0.481869	0.622558	0.731176
	C449	C	0.479781	0.622260	0.745237
	H450	H	0.474964	0.623598	0.718562
	H451	H	0.471199	0.623068	0.743893
	C452	C	0.522429	0.617418	0.767693
	C453	C	0.520363	0.617316	0.781779
	H454	H	0.530994	0.616462	0.769020
	H455	H	0.527268	0.616273	0.794393
	C456	C	0.412890	0.689624	1.051851
	C457	C	0.406054	0.684604	1.036160
	C458	C	0.410757	0.678365	1.027152
	C459	C	0.422720	0.676959	1.034069
	C460	C	0.429667	0.681881	1.050161
	C461	C	0.424648	0.688057	1.058765
	H462	H	0.396937	0.685313	1.031036
	H463	H	0.429941	0.691856	1.070971
	C464	C	0.427656	0.670739	1.025058
	C465	C	0.420713	0.665815	1.008963
	C466	C	0.425752	0.659807	1.000217
	C467	C	0.437537	0.658589	1.006857
	C468	C	0.444336	0.663250	1.022854
	C469	C	0.439619	0.669329	1.031989
	H470	H	0.420479	0.656099	0.987930
	H471	H	0.453403	0.661922	1.028512
	C472	C	0.441711	0.680223	1.056977
	C473	C	0.446430	0.674261	1.048368
	H474	H	0.447020	0.683874	1.069278
	H475	H	0.455523	0.673138	1.053777
	C476	C	0.403929	0.673185	1.010980
	C477	C	0.408650	0.667243	1.002352
	H478	H	0.394822	0.674139	1.005716
	H479	H	0.403327	0.663440	0.990182
	N480	N	0.377345	0.257888	0.604488
	C481	C	0.377925	0.251017	0.617804
	C482	C	0.389461	0.251353	0.629897
	N483	N	0.395464	0.258120	0.623805
	C484	C	0.393329	0.245028	0.645257
	C485	C	0.405395	0.244722	0.658075
	C486	C	0.384945	0.238928	0.647519
	H487	H	0.387327	0.234124	0.659186
	C488	C	0.373500	0.239106	0.635705
	H489	H	0.367455	0.234463	0.638664
	C490	C	0.369473	0.245333	0.620517
	C491	C	0.357367	0.245515	0.608066
	C492	C	0.410329	0.234952	0.667429
	C493	C	0.350907	0.235664	0.603330
	C494	C	0.351833	0.255560	0.600604
	C495	C	0.412420	0.254161	0.661316
	C496	C	0.423687	0.253899	0.673402
	H497	H	0.408974	0.261801	0.654190
	C498	C	0.340482	0.255689	0.588875
	H499	H	0.356439	0.263383	0.604343
	C500	C	0.428566	0.244197	0.682928
	H501	H	0.428918	0.261253	0.675261
	C502	C	0.421607	0.234718	0.679439
	H503	H	0.405337	0.227388	0.665057
	C504	C	0.339537	0.235835	0.591645
	H505	H	0.354967	0.227736	0.608619
	C506	C	0.333992	0.245866	0.584164
	H507	H	0.336272	0.263504	0.583254
	H508	H	0.334939	0.228029	0.587857
	H509	H	0.425344	0.227112	0.686521
	C510	C	0.388129	0.261939	0.608878
	H511	H	0.370801	0.258591	0.592778
	C512	C	0.390842	0.269184	0.597422
	C513	C	0.401429	0.268301	0.597185
	C514	C	0.404120	0.275019	0.586319
	H515	H	0.407494	0.262301	0.605663
	C516	C	0.383091	0.277019	0.586502
	C517	C	0.396484	0.282945	0.575368
	H518	H	0.412316	0.274295	0.586141
	C519	C	0.385888	0.283729	0.575700
	H520	H	0.374939	0.277955	0.586726
	H521	H	0.379689	0.289545	0.567132
	C522	C	0.440886	0.243484	0.696267
	O523	O	0.445935	0.234367	0.700900
	C524	C	0.446631	0.253837	0.703854
	C525	C	0.458095	0.254754	0.714312
	H526	H	0.441496	0.261237	0.702460
	N527	N	0.466100	0.246729	0.717766
	H528	H	0.461267	0.262808	0.720212
	H529	H	0.462611	0.239033	0.712577
	C530	C	0.321544	0.246518	0.571217
	O531	O	0.317684	0.254780	0.561614
	C532	C	0.314214	0.237243	0.570477
	C533	C	0.303200	0.235938	0.558154
	H534	H	0.317160	0.231222	0.580903
	N535	N	0.297606	0.242346	0.544095
	H536	H	0.298377	0.228906	0.559522
	H537	H	0.302092	0.249535	0.544115
	C538	C	0.400005	0.290019	0.563665
	O539	O	0.408274	0.287363	0.560969
	C540	C	0.393573	0.300021	0.555810
	C541	C	0.395018	0.306479	0.543581
	H542	H	0.387716	0.303240	0.560504
	N543	N	0.401848	0.304315	0.535902
	H544	H	0.390038	0.314099	0.539187
	H545	H	0.407245	0.297608	0.541582
	N546	N	0.528570	0.615677	0.585248
	C547	C	0.531242	0.625302	0.595099
	C548	C	0.527542	0.623100	0.607988
	N549	N	0.522641	0.612611	0.605543
	C550	C	0.528801	0.631292	0.620447
	C551	C	0.524725	0.629783	0.633894
	C552	C	0.534102	0.641218	0.619178
	H553	H	0.535511	0.647689	0.628585
	C554	C	0.538070	0.643015	0.606713
	H555	H	0.542408	0.650782	0.606899
	C556	C	0.537002	0.635041	0.594355
	C557	C	0.541142	0.637002	0.581127
	C558	C	0.519888	0.638728	0.638896
	C559	C	0.538815	0.647036	0.571719
	C560	C	0.547739	0.629030	0.577688
	C561	C	0.525549	0.619467	0.642213
	C562	C	0.522048	0.618256	0.655198
	H563	H	0.528998	0.612339	0.638386
	C564	C	0.551544	0.630917	0.565186
	H565	H	0.550124	0.621383	0.585202
	C566	C	0.517462	0.627260	0.660464
	H567	H	0.522618	0.610153	0.661169
	C568	C	0.516310	0.637449	0.651748
	H569	H	0.518776	0.646737	0.632475
	C570	C	0.542637	0.648887	0.559221
	H571	H	0.533792	0.653395	0.574131
	C572	C	0.548998	0.640819	0.555450
	H573	H	0.556710	0.624728	0.562734
	H574	H	0.540803	0.656809	0.552466
	H575	H	0.512576	0.644410	0.655495
	C576	C	0.523143	0.608510	0.591855
	H577	H	0.530109	0.614068	0.575031
	C578	C	0.519064	0.597464	0.584336
	C579	C	0.520570	0.588017	0.594737
	C580	C	0.516713	0.577559	0.587504
	H581	H	0.524834	0.589010	0.608492
	C582	C	0.513521	0.596131	0.566558
	C583	C	0.511061	0.576110	0.569734
	H584	H	0.517896	0.570224	0.595524
	C585	C	0.509645	0.585651	0.559466
	H586	H	0.512174	0.603386	0.558353
	H587	H	0.505634	0.584763	0.545718
	C588	C	0.513668	0.626556	0.674806
	O589	O	0.506504	0.633117	0.675525
	C590	C	0.519042	0.618322	0.688277
	C591	C	0.516877	0.617280	0.702486
	H592	H	0.525992	0.613425	0.688228
	N593	N	0.508694	0.622584	0.705257
	H594	H	0.522054	0.611560	0.712656
	H595	H	0.502572	0.626051	0.694035
	C596	C	0.553432	0.642379	0.541874
	O597	O	0.560972	0.636231	0.541435
	C598	C	0.548590	0.651204	0.529271
	C599	C	0.552452	0.654255	0.517297
	H600	H	0.540996	0.655400	0.528254
	N601	N	0.561548	0.650177	0.515639
	H602	H	0.547852	0.660773	0.508132
	H603	H	0.566404	0.644932	0.525775
	C604	C	0.506852	0.564452	0.562385
	O605	O	0.510897	0.555753	0.570766
	C606	C	0.497837	0.563800	0.545235
	C607	C	0.493784	0.553986	0.536204
	H608	H	0.493310	0.571413	0.539271
	N609	N	0.497747	0.543464	0.540966
	H610	H	0.486641	0.554613	0.523690
	H611	H	0.505326	0.543448	0.552035
	N612	N	0.892775	0.224707	0.112288
	C613	C	0.889021	0.231569	0.121650
	C614	C	0.877068	0.231833	0.112180
	N615	N	0.873942	0.225510	0.097554
	C616	C	0.870266	0.238172	0.117965
	C617	C	0.857728	0.239000	0.108335
	C618	C	0.876227	0.243738	0.133472
	H619	H	0.871496	0.248537	0.138756
	C620	C	0.888023	0.243025	0.142905
	H621	H	0.891984	0.247280	0.155079
	C622	C	0.894877	0.236701	0.137571
	C623	C	0.907330	0.235828	0.147529
	C624	C	0.851810	0.248780	0.108493
	C625	C	0.914129	0.245313	0.154187
	C626	C	0.912823	0.225401	0.150887
	C627	C	0.851233	0.230040	0.098532
	C628	C	0.839504	0.230765	0.089559
	H629	H	0.855469	0.222398	0.097904
	C630	C	0.924528	0.224577	0.159965
	H631	H	0.907809	0.217841	0.146625
	C632	C	0.833578	0.240464	0.089919
	H633	H	0.834849	0.223781	0.081790
	C634	C	0.840082	0.249468	0.099483
	H635	H	0.856449	0.256015	0.115495
	C636	C	0.925852	0.244448	0.163277
	H637	H	0.910133	0.253487	0.151924
	C638	C	0.931406	0.234059	0.166236
	H639	H	0.928648	0.216452	0.162532
	H640	H	0.930743	0.251964	0.168319
	H641	H	0.835619	0.257084	0.099636
	C642	C	0.883353	0.221508	0.097817
	H643	H	0.900817	0.222408	0.115210
	C644	C	0.884192	0.214146	0.084905
	C645	C	0.876190	0.205676	0.077355
	C646	C	0.877010	0.198612	0.065222
	H647	H	0.869402	0.204692	0.081222
	C648	C	0.892928	0.215383	0.079806
	C649	C	0.885671	0.199774	0.059915
	H650	H	0.870854	0.192013	0.059421
	C651	C	0.893633	0.208304	0.067589
	H652	H	0.899095	0.221989	0.085368
	H653	H	0.900587	0.209242	0.064136
	C654	C	0.820727	0.241675	0.080189
	O655	O	0.815978	0.250996	0.076975
	C656	C	0.814011	0.231537	0.074842
	C657	C	0.802655	0.231183	0.063591
	H658	H	0.817900	0.223694	0.080906
	N659	N	0.796055	0.239819	0.054518
	H660	H	0.798428	0.223111	0.061273
	H661	H	0.800136	0.247489	0.058283
	C662	C	0.944242	0.232453	0.175939
	O663	O	0.948461	0.222984	0.180665
	C664	C	0.951557	0.242143	0.179393
	C665	C	0.963234	0.241843	0.188447
	H666	H	0.947930	0.250166	0.173865
	N667	N	0.969774	0.232898	0.196308
	H668	H	0.967875	0.249596	0.189676
	H669	H	0.964998	0.226057	0.196763
	C670	C	0.886084	0.191781	0.046437
	O671	O	0.880845	0.182728	0.042939
	C672	C	0.892649	0.194872	0.037326
	C673	C	0.893804	0.187342	0.026110
	H674	H	0.896183	0.203179	0.038680
	N675	N	0.899419	0.189680	0.016551
	H676	H	0.890139	0.179021	0.024496
	H677	H	0.901439	0.198156	0.017237
	N678	N	0.377549	0.757161	0.101124
	C679	C	0.377717	0.766487	0.110740
	C680	C	0.389156	0.767388	0.123099
	N681	N	0.395580	0.759255	0.120165
	C682	C	0.392448	0.775543	0.136201
	C683	C	0.404343	0.776923	0.149377
	C684	C	0.383594	0.782187	0.136007
	H685	H	0.385539	0.788771	0.145384
	C686	C	0.372294	0.780942	0.123940
	H687	H	0.365964	0.786538	0.124512
	C688	C	0.368878	0.773041	0.110813
	C689	C	0.356941	0.771789	0.097991
	C690	C	0.406905	0.780871	0.165879
	C691	C	0.347997	0.771757	0.102793
	C692	C	0.354078	0.770636	0.080506
	C693	C	0.413600	0.774288	0.145948
	C694	C	0.424732	0.775608	0.158191
	H695	H	0.412052	0.771129	0.133460
	C696	C	0.342869	0.769397	0.068537
	H697	H	0.360715	0.770944	0.076232
	C698	C	0.427295	0.779734	0.174567
	H699	H	0.431542	0.773188	0.155030
	C700	C	0.418045	0.782219	0.178048
	H701	H	0.400123	0.782751	0.169392
	C702	C	0.336790	0.770543	0.090768
	H703	H	0.349922	0.772425	0.116226
	C704	C	0.333904	0.769394	0.073281
	H705	H	0.340754	0.768576	0.055050
	H706	H	0.330178	0.770163	0.095055
	H707	H	0.419867	0.785262	0.190734
	C708	C	0.388589	0.753472	0.106969
	H709	H	0.370689	0.753003	0.092742
	C710	C	0.391630	0.743668	0.099678
	C711	C	0.399767	0.736059	0.110355
	C712	C	0.402748	0.726787	0.103530
	H713	H	0.403746	0.737584	0.124008
	C714	C	0.386683	0.741748	0.082024
	C715	C	0.397819	0.724670	0.085887
	H716	H	0.409066	0.720925	0.111852
	C717	C	0.389773	0.732458	0.075326
	H718	H	0.380630	0.747752	0.073577
	H719	H	0.386012	0.731374	0.061633
	C720	C	0.439321	0.781396	0.188583
	O721	O	0.441184	0.783083	0.203729
	C722	C	0.448721	0.781069	0.183961
	C723	C	0.460027	0.781567	0.195444
	H724	H	0.446944	0.780980	0.170551
	N725	N	0.464435	0.781946	0.212723
	H726	H	0.466285	0.781521	0.190349
	H727	H	0.458274	0.780646	0.217086
	C728	C	0.321754	0.767989	0.059518
	O729	O	0.319709	0.764380	0.045031
	C730	C	0.312550	0.771068	0.063671
	C731	C	0.301204	0.769069	0.053397
	H732	H	0.314458	0.775917	0.075122
	N733	N	0.296642	0.763408	0.038472
	H734	H	0.295076	0.772212	0.057659
	H735	H	0.302609	0.761627	0.033923
	C736	C	0.401705	0.714327	0.079386
	O737	O	0.409885	0.708574	0.089180
	C738	C	0.395784	0.711289	0.061534
	C739	C	0.399114	0.702860	0.053751
	H740	H	0.387979	0.715547	0.053494
	N741	N	0.408304	0.696149	0.060948
	H742	H	0.393880	0.701312	0.040270
	H743	H	0.413568	0.698502	0.073398
	C744	C	0.226851	0.240878	0.479075
	C745	C	0.232971	0.250925	0.482101
	C746	C	0.244607	0.251306	0.492786
	C747	C	0.250414	0.241303	0.500920
	C748	C	0.244190	0.231112	0.498061
	C749	C	0.232555	0.231075	0.487280
	H750	H	0.228552	0.258514	0.475798
	H751	H	0.227850	0.223358	0.485632
	C752	C	0.262226	0.241500	0.511795
	C753	C	0.268447	0.251692	0.514650
	C754	C	0.280092	0.251689	0.525331
	C755	C	0.285821	0.241874	0.533456
	C756	C	0.279698	0.231837	0.530513
	C757	C	0.268038	0.231497	0.519925
	H758	H	0.284829	0.259448	0.527548
	H759	H	0.284071	0.224103	0.536117
	C760	C	0.250255	0.221132	0.506452
	C761	C	0.261565	0.221309	0.516780
	H762	H	0.245570	0.213357	0.504311
	H763	H	0.265933	0.213674	0.522917
	C764	C	0.251082	0.261489	0.495897
	C765	C	0.262389	0.261670	0.506250
	H766	H	0.246707	0.269114	0.489719
	H767	H	0.267077	0.269444	0.508380
	C768	C	0.592317	0.681180	0.457632
	C769	C	0.598899	0.675510	0.472936
	C770	C	0.593942	0.670253	0.482524
	C771	C	0.581963	0.670560	0.476619
	C772	C	0.575246	0.676155	0.460919
	C773	C	0.580514	0.681289	0.451695
	H774	H	0.607971	0.674930	0.477261
	H775	H	0.575405	0.685589	0.439780
	C776	C	0.576783	0.665352	0.486226
	C777	C	0.583489	0.659727	0.501904
	C778	C	0.578223	0.654710	0.511229
	C779	C	0.566455	0.655187	0.505591
	C780	C	0.559857	0.660555	0.490012
	C781	C	0.564804	0.665663	0.480306
	H782	H	0.583318	0.650454	0.523189
	H783	H	0.550723	0.660517	0.485108
	C784	C	0.563161	0.676241	0.455126
	C785	C	0.558208	0.671260	0.464316
	H786	H	0.558015	0.680416	0.443130
	H787	H	0.549090	0.671444	0.459678
	C788	C	0.600507	0.664412	0.498302
	C789	C	0.595552	0.659426	0.507490
	H790	H	0.609610	0.664064	0.502797
	H791	H	0.600684	0.655089	0.519341
	C792	C	0.040155	0.233268	0.263595
	C793	C	0.032815	0.225527	0.265787
	C794	C	0.021198	0.225454	0.254953
	C795	C	0.016664	0.233356	0.241271
	C796	C	0.024110	0.241173	0.238919
	C797	C	0.035688	0.240981	0.250041
	H798	H	0.036271	0.219504	0.276191
	H799	H	0.041306	0.246708	0.247747
	C800	C	0.004911	0.233363	0.230037
	C801	C	-0.002503	0.225458	0.232286
	C802	C	-0.014034	0.225529	0.220973
	C803	C	-0.018531	0.233289	0.207484
	C804	C	-0.011212	0.241024	0.205240
	C805	C	0.000385	0.241196	0.216255
	H806	H	-0.019677	0.219499	0.222654
	H807	H	-0.014480	0.246751	0.194459
	C808	C	0.019329	0.248981	0.224885
	C809	C	0.008085	0.248995	0.214149
	H810	H	0.024947	0.254931	0.223002
	H811	H	0.004704	0.254954	0.203670
	C812	C	0.013524	0.217586	0.256980
	C813	C	0.002284	0.217585	0.246225
	H814	H	0.016930	0.211562	0.267368
	H815	H	-0.003320	0.211563	0.247997
	C816	C	0.901662	0.149759	0.936936
	C817	C	0.900567	0.144684	0.950761
	C818	C	0.900065	0.151076	0.963940
	C819	C	0.900608	0.162992	0.963327
	C820	C	0.901577	0.168169	0.949176
	C821	C	0.901997	0.161495	0.936217
	H822	H	0.899803	0.135654	0.951043
	H823	H	0.902771	0.165418	0.925464
	C824	C	0.900185	0.169619	0.976627
	C825	C	0.899228	0.164451	0.990794
	C826	C	0.898909	0.171121	1.003848
	C827	C	0.899492	0.182837	1.003292
	C828	C	0.900515	0.187902	0.989394
	C829	C	0.900823	0.181527	0.976072
	H830	H	0.898465	0.167072	1.014752
	H831	H	0.900955	0.196960	0.988901
	C832	C	0.902070	0.180214	0.948822
	C833	C	0.901736	0.186550	0.961595
	H834	H	0.902752	0.184183	0.938040
	H835	H	0.902139	0.195603	0.961031
	C836	C	0.898982	0.146072	0.978297
	C837	C	0.898599	0.152411	0.991036
	H838	H	0.898482	0.137021	0.978780
	H839	H	0.897785	0.148436	1.001712
	C840	C	0.533378	0.770138	0.281596
	C841	C	0.524600	0.766767	0.285730
	C842	C	0.513219	0.768708	0.274551
	C843	C	0.510427	0.774180	0.258583
	C844	C	0.519332	0.777549	0.254309
	C845	C	0.530601	0.775404	0.265789
	H846	H	0.526628	0.762271	0.297578
	H847	H	0.537397	0.777980	0.262588
	C848	C	0.498928	0.776192	0.247048
	C849	C	0.490024	0.772807	0.251312
	C850	C	0.478752	0.774865	0.239770
	C851	C	0.475965	0.780140	0.223962
	C852	C	0.484747	0.783586	0.219886
	C853	C	0.496132	0.781684	0.231095
	H854	H	0.471964	0.772243	0.242958
	H855	H	0.482737	0.788072	0.208038
	C856	C	0.516283	0.783056	0.238108
	C857	C	0.505287	0.785042	0.227122
	H858	H	0.523025	0.785651	0.234815
	H859	H	0.503218	0.789219	0.215012
	C860	C	0.504065	0.765321	0.278505
	C861	C	0.493068	0.767277	0.267496
	H862	H	0.506134	0.761132	0.290606
	H863	H	0.486325	0.764659	0.270770
	C864	C	0.226836	0.762613	-0.031703
	C865	C	0.235286	0.762494	-0.037547
	C866	C	0.246807	0.762574	-0.026170
	C867	C	0.250091	0.762872	-0.008222
	C868	C	0.241524	0.763125	-0.002252
	C869	C	0.230090	0.763006	-0.014039
	H870	H	0.232763	0.762210	-0.051210
	H871	H	0.223659	0.763571	-0.009380
	C872	C	0.261736	0.763001	0.003546
	C873	C	0.270302	0.762747	-0.002423
	C874	C	0.281728	0.762835	0.009391
	C875	C	0.284980	0.763294	0.027051
	C876	C	0.276537	0.763440	0.032901
	C877	C	0.265018	0.763341	0.021492
	H878	H	0.288257	0.762673	0.004865
	H879	H	0.278924	0.763312	0.046514
	C880	C	0.245065	0.763450	0.015933
	C881	C	0.256202	0.763529	0.027191
	H882	H	0.238587	0.763617	0.020544
	H883	H	0.258643	0.763764	0.040820
	C884	C	0.255622	0.762313	-0.031864
	C885	C	0.266762	0.762377	-0.020604
	H886	H	0.253169	0.762048	-0.045496
	H887	H	0.273238	0.762172	-0.025217
	N888	N	0.120116	0.223222	0.378634
	C889	C	0.125584	0.231169	0.373171
	C890	C	0.136794	0.231550	0.386362
	N891	N	0.137797	0.224213	0.399295
	C892	C	0.144908	0.238967	0.385235
	C893	C	0.156715	0.239905	0.398820
	C894	C	0.141013	0.245443	0.370273
	H895	H	0.146870	0.251095	0.368455
	C896	C	0.129996	0.244621	0.357126
	H897	H	0.127730	0.249648	0.345679
	C898	C	0.121905	0.237265	0.357864
	C899	C	0.110295	0.236287	0.343925
	C900	C	0.162670	0.250088	0.402286
	C901	C	0.103678	0.245763	0.336281
	C902	C	0.105475	0.225796	0.337704
	C903	C	0.162458	0.230629	0.408821
	C904	C	0.173562	0.231433	0.421351
	H905	H	0.158132	0.222655	0.406712
	C906	C	0.094565	0.224871	0.324667
	H907	H	0.110448	0.218292	0.342934
	C908	C	0.179590	0.241541	0.424572
	H909	H	0.177574	0.224146	0.429040
	C910	C	0.173767	0.250851	0.414835
	H911	H	0.158522	0.257549	0.395262
	C912	C	0.092755	0.244796	0.323225
	H913	H	0.107100	0.253987	0.340956
	C914	C	0.087897	0.234315	0.316986
	H915	H	0.090980	0.216705	0.319905
	H916	H	0.087843	0.252313	0.318087
	H917	H	0.178259	0.258769	0.417399
	C918	C	0.127902	0.219307	0.394353
	H919	H	0.111747	0.221499	0.373326
	C920	C	0.124783	0.211392	0.404613
	C921	C	0.116928	0.202799	0.397029
	C922	C	0.113935	0.195587	0.407053
	H923	H	0.113260	0.201723	0.383304
	C924	C	0.129721	0.212300	0.422457
	C925	C	0.118565	0.196588	0.424912
	H926	H	0.107844	0.188938	0.401223
	C927	C	0.126644	0.205053	0.432359
	H928	H	0.135953	0.218820	0.428373
	H929	H	0.130726	0.205860	0.446101
	C930	C	0.191811	0.242862	0.438070
	O931	O	0.195958	0.252206	0.443664
	C932	C	0.198711	0.232851	0.444094
	C933	C	0.209449	0.232499	0.457444
	H934	H	0.195646	0.225157	0.436976
	N935	N	0.215119	0.240942	0.468091
	H936	H	0.213966	0.224566	0.460172
	H937	H	0.210959	0.248575	0.464080
	C938	C	0.075960	0.232588	0.302710
	O939	O	0.071454	0.223157	0.299762
	C940	C	0.069886	0.242125	0.292470
	C941	C	0.058923	0.241768	0.279670
	H942	H	0.074211	0.250075	0.294102
	N943	N	0.051838	0.232879	0.274847
	H944	H	0.055384	0.249433	0.272558
	H945	H	0.055020	0.226108	0.283130
	C946	C	0.114648	0.188492	0.435036
	O947	O	0.109018	0.179941	0.428402
	C948	C	0.117278	0.190872	0.452658
	C949	C	0.113694	0.183526	0.461699
	H950	H	0.121410	0.198594	0.458440
	N951	N	0.115269	0.185279	0.477979
	H952	H	0.109241	0.175895	0.455800
	H953	H	0.120591	0.192081	0.483292
	N954	N	0.630969	0.744094	0.405548
	C955	C	0.631116	0.753180	0.395574
	C956	C	0.619729	0.754310	0.383089
	N957	N	0.613041	0.746568	0.386280
	C958	C	0.616715	0.762278	0.369645
	C959	C	0.604879	0.763865	0.356341
	C960	C	0.625777	0.768500	0.369643
	H961	H	0.624056	0.774924	0.359987
	C962	C	0.637017	0.767031	0.381853
	H963	H	0.643525	0.772307	0.381113
	C964	C	0.640160	0.759314	0.395316
	C965	C	0.652036	0.757851	0.408286
	C966	C	0.602459	0.767509	0.339685
	C967	C	0.661017	0.757278	0.403600
	C968	C	0.654807	0.757048	0.425797
	C969	C	0.595532	0.761717	0.359805
	C970	C	0.584452	0.763192	0.347439
	H971	H	0.596963	0.758810	0.372413
	C972	C	0.665963	0.755648	0.437909
	H973	H	0.648145	0.757765	0.429967
	C974	C	0.582036	0.767010	0.330901
	H975	H	0.577552	0.761127	0.350616
	C976	C	0.591368	0.769019	0.327388
	H977	H	0.609310	0.769010	0.336156
	C978	C	0.672172	0.755901	0.415765
	H979	H	0.659156	0.757657	0.390159
	C980	C	0.674969	0.755121	0.433282
	H981	H	0.668009	0.755110	0.451413
	H982	H	0.678800	0.755104	0.411576
	H983	H	0.589648	0.771807	0.314576
	C984	C	0.619819	0.740786	0.399749
	H985	H	0.637690	0.739829	0.414150
	C986	C	0.616403	0.731334	0.407355
	C987	C	0.607868	0.724041	0.396899
	C988	C	0.604450	0.715146	0.403979
	H989	H	0.603917	0.725523	0.383212
	C990	C	0.621319	0.729481	0.425055
	C991	C	0.609332	0.713107	0.421670
	H992	H	0.597816	0.709536	0.395836
	C993	C	0.617797	0.720566	0.432012
	H994	H	0.627682	0.735259	0.433336
	H995	H	0.621510	0.719534	0.445733
	C996	C	0.570054	0.768775	0.316784
	O997	O	0.568208	0.770113	0.301553
	C998	C	0.560681	0.768984	0.321471
	C999	C	0.549357	0.768941	0.310022
	H1000	H	0.562520	0.769787	0.334855
	N1001	N	0.544885	0.768148	0.292773
	H1002	H	0.543121	0.769408	0.315141
	H1003	H	0.551029	0.769128	0.288296
	C1004	C	0.687062	0.753593	0.447206
	O1005	O	0.688975	0.750347	0.461870
	C1006	C	0.696373	0.756127	0.442991
	C1007	C	0.707665	0.753991	0.453489
	H1008	H	0.694610	0.760634	0.431228
	N1009	N	0.712080	0.748706	0.468822
	H1010	H	0.713882	0.756687	0.449078
	H1011	H	0.706058	0.747416	0.473451
	C1012	C	0.604925	0.703252	0.428504
	O1013	O	0.596219	0.698074	0.419052
	C1014	C	0.610979	0.700030	0.446304
	C1015	C	0.607136	0.692287	0.454535
	H1016	H	0.619322	0.703459	0.453804
	N1017	N	0.597198	0.686681	0.447930
	H1018	H	0.612539	0.690391	0.467874
	H1019	H	0.591886	0.689445	0.435680
	N1020	N	0.947763	0.088474	0.860125
	C1021	C	0.942746	0.098480	0.852311
	C1022	C	0.937603	0.102714	0.862536
	N1023	N	0.939425	0.095343	0.875779
	C1024	C	0.931507	0.112958	0.858288
	C1025	C	0.925780	0.117724	0.868358
	C1026	C	0.931278	0.118394	0.843800
	H1027	H	0.927006	0.126394	0.840076
	C1028	C	0.936771	0.114238	0.834249
	H1029	H	0.936522	0.119141	0.823546
	C1030	C	0.942949	0.104238	0.838335
	C1031	C	0.948905	0.099990	0.828375
	C1032	C	0.916021	0.124408	0.860735
	C1033	C	0.943635	0.099732	0.810449
	C1034	C	0.960153	0.096242	0.836472
	C1035	C	0.929973	0.115892	0.886049
	C1036	C	0.924748	0.120473	0.895561
	H1037	H	0.937529	0.110873	0.892490
	C1038	C	0.965789	0.092441	0.827082
	H1039	H	0.964602	0.096589	0.850285
	C1040	C	0.915010	0.127147	0.887956
	H1041	H	0.928456	0.119058	0.909218
	C1042	C	0.910861	0.129014	0.870310
	H1043	H	0.912313	0.125934	0.847105
	C1044	C	0.949312	0.095926	0.801102
	H1045	H	0.934881	0.102371	0.803813
	C1046	C	0.960595	0.092269	0.809150
	H1047	H	0.974522	0.089682	0.833495
	H1048	H	0.944810	0.095545	0.787335
	H1049	H	0.903341	0.134171	0.864240
	C1050	C	0.945510	0.087077	0.874180
	H1051	H	0.951123	0.082565	0.855385
	C1052	C	0.949236	0.077150	0.885318
	C1053	C	0.942578	0.073015	0.893081
	C1054	C	0.945969	0.063609	0.903636
	H1055	H	0.934769	0.077329	0.890785
	C1056	C	0.959445	0.071673	0.888683
	C1057	C	0.956052	0.057895	0.906867
	H1058	H	0.940801	0.060434	0.909639
	C1059	C	0.962760	0.062258	0.899279
	H1060	H	0.964910	0.075006	0.883324
	H1061	H	0.970820	0.058365	0.902089
	C1062	C	0.909031	0.132581	0.897771
	O1063	O	0.902090	0.140346	0.891483
	C1064	C	0.911646	0.128558	0.914883
	C1065	C	0.908167	0.133668	0.926091
	H1066	H	0.916125	0.120673	0.919051
	N1067	N	0.902333	0.143386	0.923683
	H1068	H	0.910329	0.129669	0.938399
	H1069	H	0.901515	0.147483	0.912588
	C1070	C	0.967393	0.088192	0.799645
	O1071	O	0.976482	0.083025	0.807201
	C1072	C	0.963166	0.090675	0.781567
	C1073	C	0.968213	0.087285	0.771247
	H1074	H	0.955852	0.096083	0.775548
	N1075	N	0.977502	0.080788	0.775562
	H1076	H	0.964372	0.090018	0.757967
	H1077	H	0.981578	0.079332	0.788663
	C1078	C	0.959267	0.047568	0.918611
	O1079	O	0.954548	0.045502	0.928054
	C1080	C	0.967882	0.040068	0.918391
	C1081	C	0.972482	0.031146	0.929539
	H1082	H	0.970518	0.040931	0.908197
	N1083	N	0.970458	0.028225	0.943045
	H1084	H	0.978525	0.025799	0.927586
	H1085	H	0.963810	0.032774	0.943414
	N1086	N	0.117076	0.764584	0.885640
	C1087	C	0.122616	0.759199	0.877286
	C1088	C	0.134287	0.759933	0.888685
	N1089	N	0.135542	0.765719	0.903138
	C1090	C	0.142644	0.755257	0.884348
	C1091	C	0.155017	0.756011	0.895621
	C1092	C	0.138404	0.749872	0.868493
	H1093	H	0.144317	0.745908	0.864563
	C1094	C	0.126795	0.748920	0.857703
	H1095	H	0.124168	0.744304	0.845881
	C1096	C	0.118413	0.753317	0.861839
	C1097	C	0.106137	0.752213	0.850588
	C1098	C	0.163066	0.756464	0.888962
	C1099	C	0.101585	0.754700	0.833057
	C1100	C	0.098556	0.748564	0.857055
	C1101	C	0.159230	0.756374	0.913500
	C1102	C	0.170786	0.757049	0.924094
	H1103	H	0.153341	0.756153	0.919202
	C1104	C	0.087016	0.747648	0.846557
	H1105	H	0.101805	0.746204	0.870416
	C1106	C	0.178832	0.757312	0.917466
	H1107	H	0.173610	0.757626	0.937763
	C1108	C	0.174614	0.757113	0.899609
	H1109	H	0.160274	0.756507	0.875271
	C1110	C	0.090024	0.753750	0.822582
	H1111	H	0.107203	0.757664	0.827713
	C1112	C	0.082414	0.750159	0.829032
	H1113	H	0.081259	0.744766	0.851708
	H1114	H	0.086804	0.756115	0.809262
	H1115	H	0.180723	0.757497	0.894278
	C1116	C	0.125303	0.768501	0.900934
	H1117	H	0.108659	0.765659	0.881503
	C1118	C	0.122425	0.774215	0.913478
	C1119	C	0.128100	0.771452	0.930856
	C1120	C	0.125293	0.776709	0.942784
	H1121	H	0.134644	0.765086	0.934796
	C1122	C	0.113991	0.782472	0.908475
	C1123	C	0.116896	0.785018	0.938000
	H1124	H	0.129625	0.774530	0.956234
	C1125	C	0.111297	0.787731	0.920539
	H1126	H	0.109635	0.784781	0.895099
	H1127	H	0.104596	0.793898	0.916383
	C1128	C	0.191608	0.758078	0.928515
	O1129	O	0.198290	0.760786	0.922402
	C1130	C	0.195930	0.755418	0.946580
	C1131	C	0.206902	0.757319	0.958633
	H1132	H	0.190431	0.751025	0.950987
	N1133	N	0.215315	0.762533	0.956288
	H1134	H	0.209202	0.754572	0.971682
	H1135	H	0.213173	0.763860	0.943391
	C1136	C	0.069620	0.749026	0.818282
	O1137	O	0.063017	0.748146	0.825102
	C1138	C	0.065240	0.748916	0.799829
	C1139	C	0.053861	0.749091	0.788558
	H1140	H	0.071124	0.747976	0.794183
	N1141	N	0.044922	0.750024	0.792371
	H1142	H	0.051619	0.748566	0.774969
	H1143	H	0.047300	0.749255	0.805410
	C1144	C	0.114185	0.790465	0.951741
	O1145	O	0.117088	0.786138	0.966130
	C1146	C	0.108142	0.800984	0.948020
	C1147	C	0.104712	0.805351	0.959766
	H1148	H	0.106947	0.805683	0.936703
	N1149	N	0.099486	0.815378	0.957894
	H1150	H	0.106114	0.800710	0.971306
	H1151	H	0.097552	0.818797	0.945890
	C1152	C	0.098119	0.141553	0.541117
	C1153	C	0.092524	0.140690	0.523261
	C1154	C	0.095306	0.147674	0.512597
	C1155	C	0.104073	0.155777	0.519950
	C1156	C	0.109902	0.156539	0.538098
	C1157	C	0.106888	0.149391	0.548323
	H1158	H	0.086089	0.134327	0.517580
	H1159	H	0.111251	0.150012	0.562138
	C1160	C	0.106940	0.163014	0.509340
	C1161	C	0.101063	0.162305	0.491195
	C1162	C	0.103899	0.169610	0.480937
	C1163	C	0.112464	0.177643	0.488122
	C1164	C	0.118222	0.178336	0.505996
	C1165	C	0.115636	0.171184	0.516684
	H1166	H	0.099113	0.169150	0.467183
	H1167	H	0.124862	0.184522	0.511625
	C1168	C	0.118761	0.164751	0.545195
	C1169	C	0.121471	0.171705	0.535044
	H1170	H	0.123265	0.165308	0.558988
	H1171	H	0.128160	0.177830	0.540720
	C1172	C	0.089618	0.147015	0.494240
	C1173	C	0.092332	0.153967	0.484093
	H1174	H	0.083012	0.140807	0.488572
	H1175	H	0.087907	0.153318	0.470300
	C1176	C	0.781865	0.747512	0.539100
	C1177	C	0.773421	0.748081	0.544929
	C1178	C	0.761901	0.748220	0.533544
	C1179	C	0.758614	0.747867	0.515597
	C1180	C	0.767176	0.747417	0.509632
	C1181	C	0.778607	0.747260	0.521428
	H1182	H	0.775947	0.748295	0.558596
	H1183	H	0.785041	0.747296	0.516736
	C1184	C	0.746971	0.748054	0.503816
	C1185	C	0.738406	0.748507	0.509775
	C1186	C	0.726982	0.748647	0.497950
	C1187	C	0.723736	0.748486	0.480278
	C1188	C	0.732175	0.747932	0.474447
	C1189	C	0.743690	0.747753	0.485868
	H1190	H	0.720453	0.749022	0.502462
	H1191	H	0.729779	0.747312	0.460866
	C1192	C	0.763636	0.747094	0.491447
	C1193	C	0.752501	0.747230	0.480181
	H1194	H	0.770111	0.746721	0.486845
	H1195	H	0.750059	0.746970	0.466553
	C1196	C	0.753086	0.748659	0.539228
	C1197	C	0.741947	0.748776	0.527962
	H1198	H	0.755539	0.748885	0.552863
	H1199	H	0.735473	0.749106	0.532570
	C1200	C	0.016516	0.078386	0.718559
	C1201	C	0.021810	0.078344	0.736483
	C1202	C	0.015498	0.078507	0.746052
	C1203	C	0.003444	0.078646	0.737483
	C1204	C	-0.001949	0.078484	0.719267
	C1205	C	0.004655	0.078272	0.710161
	H1206	H	0.030958	0.077924	0.743083
	H1207	H	0.000561	0.078236	0.696294
	C1208	C	-0.003107	0.078972	0.746959
	C1209	C	0.002282	0.079124	0.765177
	C1210	C	-0.004324	0.079559	0.774273
	C1211	C	-0.016176	0.080016	0.765849
	C1212	C	-0.021469	0.079655	0.747936
	C1213	C	-0.015159	0.079178	0.738382
	H1214	H	-0.000237	0.079744	0.788136
	H1215	H	-0.030624	0.079480	0.741343
	C1216	C	-0.014129	0.078520	0.710922
	C1217	C	-0.020393	0.078850	0.719986
	H1218	H	-0.018266	0.078302	0.697076
	H1219	H	-0.029553	0.078892	0.713397
	C1220	C	0.020723	0.078509	0.764458
	C1221	C	0.014458	0.078798	0.773524
	H1222	H	0.029881	0.078291	0.771054
	H1223	H	0.018593	0.078818	0.787376
	C1224	C	-0.026455	0.017870	-0.048067
	C1225	C	-0.016327	0.012380	-0.045186
	C1226	C	-0.013363	0.002136	-0.036349
	C1227	C	-0.020735	-0.002851	-0.030079
	C1228	C	-0.030982	0.002768	-0.032859
	C1229	C	-0.033631	0.013006	-0.041714
	H1230	H	-0.010508	0.016256	-0.049449
	H1231	H	-0.041453	0.017268	-0.043904
	C1232	C	-0.017875	-0.013237	-0.021083
	C1233	C	-0.007620	-0.018849	-0.018282
	C1234	C	-0.004985	-0.029102	-0.009464
	C1235	C	-0.012163	-0.033966	-0.003114
	C1236	C	-0.022289	-0.028472	-0.005991
	C1237	C	-0.025239	-0.018216	-0.014794
	H1238	H	0.002832	-0.033369	-0.007282
	H1239	H	-0.028122	-0.032357	-0.001765
	C1240	C	-0.038289	-0.002449	-0.026427
	C1241	C	-0.035575	-0.012407	-0.017885
	H1242	H	-0.046113	0.001770	-0.028573
	H1243	H	-0.041228	-0.016161	-0.013184
	C1244	C	-0.003050	-0.003696	-0.033318
	C1245	C	-0.000337	-0.013655	-0.024780
	H1246	H	0.002589	0.000044	-0.038058
	H1247	H	0.007475	-0.017887	-0.022667
	C1248	C	-0.024166	0.737975	0.724707
	C1249	C	-0.019811	0.734874	0.741996
	C1250	C	-0.008451	0.736791	0.753268
	C1251	C	-0.001091	0.741946	0.747125
	C1252	C	-0.005463	0.744981	0.729515
	C1253	C	-0.016865	0.742921	0.718653
	H1254	H	-0.025216	0.730629	0.746709
	H1255	H	-0.020207	0.745253	0.705257
	C1256	C	0.010457	0.743963	0.758365
	C1257	C	0.014825	0.740929	0.775976
	C1258	C	0.026203	0.743065	0.786867
	C1259	C	0.033498	0.748024	0.780818
	C1260	C	0.029171	0.751058	0.763505
	C1261	C	0.017824	0.749097	0.752215
	H1262	H	0.029543	0.740743	0.800270
	H1263	H	0.034602	0.755294	0.758828
	C1264	C	0.002143	0.750169	0.723628
	C1265	C	0.013178	0.752135	0.734394
	H1266	H	-0.001146	0.752515	0.710256
	H1267	H	0.018727	0.756058	0.729640
	C1268	C	-0.003813	0.733771	0.771095
	C1269	C	0.007215	0.735756	0.781869
	H1270	H	-0.009360	0.729844	0.775850
	H1271	H	0.010505	0.733413	0.795243
	C1272	C	0.064923	0.837943	0.015614
	C1273	C	0.074329	0.830818	0.023073
	C1274	C	0.080265	0.827122	0.013939
	C1275	C	0.076659	0.830564	-0.003389
	C1276	C	0.067047	0.837726	-0.011049
	C1277	C	0.061373	0.841298	-0.001453
	H1278	H	0.077056	0.828209	0.036262
	H1279	H	0.053853	0.846428	-0.007554
	C1280	C	0.082481	0.826797	-0.012953
	C1281	C	0.092068	0.819601	-0.005313
	C1282	C	0.097681	0.815952	-0.014957
	C1283	C	0.093990	0.819109	-0.032123
	C1284	C	0.084642	0.826313	-0.039552
	C1285	C	0.078815	0.830153	-0.030328
	H1286	H	0.105148	0.810746	-0.008827
	H1287	H	0.081801	0.828841	-0.052788
	C1288	C	0.063555	0.841041	-0.028588
	C1289	C	0.069140	0.837459	-0.037726
	H1290	H	0.056274	0.846515	-0.034455
	H1291	H	0.066327	0.840070	-0.050915
	C1292	C	0.090015	0.819917	0.021391
	C1293	C	0.095629	0.816375	0.012275
	H1294	H	0.092835	0.817334	0.034596
	H1295	H	0.102938	0.810937	0.018173
	N1296	N	0.049301	0.084218	0.620380
	C1297	C	0.055146	0.093867	0.628134
	C1298	C	0.059912	0.097780	0.617183
	N1299	N	0.057029	0.090587	0.603534
	C1300	C	0.066662	0.107596	0.621190
	C1301	C	0.071979	0.112068	0.610312
	C1302	C	0.067933	0.112950	0.636241
	H1303	H	0.072770	0.120635	0.639852
	C1304	C	0.062781	0.109148	0.646517
	H1305	H	0.063834	0.114000	0.657626
	C1306	C	0.055942	0.099603	0.642660
	C1307	C	0.050241	0.095774	0.653264
	C1308	C	0.082204	0.118067	0.617265
	C1309	C	0.055945	0.095259	0.671160
	C1310	C	0.038779	0.092705	0.645780
	C1311	C	0.066963	0.110571	0.592516
	C1312	C	0.071741	0.115001	0.582246
	H1313	H	0.059158	0.105877	0.586612
	C1314	C	0.033360	0.089275	0.655709
	H1315	H	0.034003	0.093295	0.632026
	C1316	C	0.081781	0.121255	0.589127
	H1317	H	0.067705	0.113399	0.568658
	C1318	C	0.086933	0.122500	0.606940
	H1319	H	0.086611	0.119172	0.630949
	C1320	C	0.050478	0.091839	0.681056
	H1321	H	0.064857	0.097378	0.677325
	C1322	C	0.038997	0.088842	0.673612
	H1323	H	0.024469	0.087034	0.649768
	H1324	H	0.055273	0.091227	0.694769
	H1325	H	0.094823	0.127126	0.612503
	C1326	C	0.050692	0.082731	0.605612
	H1327	H	0.045980	0.078481	0.625518
	C1328	C	0.045833	0.073138	0.594230
	C1329	C	0.051610	0.068463	0.585484
	C1330	C	0.047111	0.059371	0.574671
	H1331	H	0.059630	0.072095	0.587259
	C1332	C	0.035444	0.068424	0.591785
	C1333	C	0.036674	0.054615	0.571966
	H1334	H	0.051606	0.055758	0.567931
	C1335	C	0.031003	0.059339	0.580891
	H1336	H	0.030767	0.072039	0.598221
	H1337	H	0.023095	0.055695	0.579491
	C1338	C	0.087290	0.126544	0.578468
	O1339	O	0.097264	0.129904	0.585105
	C1340	C	0.080486	0.127916	0.560212
	C1341	C	0.084401	0.131981	0.548789
	H1342	H	0.071469	0.126336	0.555044
	N1343	N	0.095157	0.134735	0.551967
	H1344	H	0.078309	0.133036	0.535524
	H1345	H	0.100483	0.134576	0.564992
	C1346	C	0.032415	0.085199	0.683710
	O1347	O	0.023079	0.080427	0.676594
	C1348	C	0.037130	0.087657	0.701810
	C1349	C	0.032256	0.084670	0.712577
	H1350	H	0.044650	0.092815	0.707412
	N1351	N	0.022818	0.078497	0.708774
	H1352	H	0.036387	0.087437	0.725784
	H1353	H	0.018578	0.076871	0.695766
	C1354	C	0.032187	0.044608	0.559863
	O1355	O	0.038484	0.039038	0.555428
	C1356	C	0.020312	0.041773	0.553434
	C1357	C	0.015335	0.032309	0.543985
	H1358	H	0.014638	0.047736	0.555097
	N1359	N	0.020504	0.023772	0.539956
	H1360	H	0.006240	0.031337	0.539348
	H1361	H	0.028914	0.025576	0.542959
	N1362	N	0.891574	0.749480	0.619200
	C1363	C	0.886229	0.744760	0.628422
	C1364	C	0.874501	0.745343	0.617271
	N1365	N	0.873021	0.750494	0.602170
	C1366	C	0.866300	0.741174	0.622413
	C1367	C	0.853883	0.741772	0.611352
	C1368	C	0.870744	0.736447	0.638825
	H1369	H	0.864956	0.732894	0.643408
	C1370	C	0.882400	0.735656	0.649422
	H1371	H	0.885189	0.731570	0.661760
	C1372	C	0.890629	0.739545	0.644503
	C1373	C	0.902946	0.738642	0.655629
	C1374	C	0.845985	0.742825	0.618219
	C1375	C	0.907635	0.741993	0.672788
	C1376	C	0.910425	0.734334	0.649457
	C1377	C	0.849476	0.741370	0.593452
	C1378	C	0.837882	0.741896	0.583043
	H1379	H	0.855242	0.740659	0.587583
	C1380	C	0.921998	0.733595	0.659873
	H1381	H	0.907071	0.731312	0.636433
	C1382	C	0.829987	0.742762	0.589897
	H1383	H	0.834906	0.741876	0.569313
	C1384	C	0.834397	0.743322	0.607757
	H1385	H	0.848930	0.743460	0.631903
	C1386	C	0.919225	0.741219	0.683180
	H1387	H	0.902095	0.745481	0.677878
	C1388	C	0.926737	0.736957	0.677031
	H1389	H	0.927677	0.730181	0.654973
	H1390	H	0.922527	0.744245	0.696159
	H1391	H	0.828404	0.744177	0.613238
	C1392	C	0.883186	0.752952	0.603667
	H1393	H	0.899977	0.750297	0.622937
	C1394	C	0.885695	0.758320	0.590416
	C1395	C	0.878612	0.756428	0.573130
	C1396	C	0.880869	0.761418	0.560410
	H1397	H	0.871363	0.750964	0.569849
	C1398	C	0.895002	0.765450	0.594492
	C1399	C	0.890155	0.768574	0.564258
	H1400	H	0.875379	0.759911	0.547038
	C1401	C	0.897171	0.770422	0.581642
	H1402	H	0.900464	0.767183	0.607774
	H1403	H	0.904500	0.775744	0.585180
	C1404	C	0.817179	0.743407	0.579027
	O1405	O	0.810610	0.746667	0.585010
	C1406	C	0.812698	0.739976	0.561287
	C1407	C	0.801702	0.741730	0.549178
	H1408	H	0.818100	0.735121	0.557258
	N1409	N	0.793389	0.747416	0.551101
	H1410	H	0.799291	0.738417	0.536430
	H1411	H	0.795607	0.749248	0.563867
	C1412	C	0.939557	0.735931	0.687709
	O1413	O	0.946053	0.734395	0.680851
	C1414	C	0.944096	0.736736	0.706136
	C1415	C	0.955510	0.736560	0.717233
	H1416	H	0.938305	0.736883	0.712032
	N1417	N	0.964374	0.736111	0.713178
	H1418	H	0.957837	0.736900	0.730859
	H1419	H	0.961853	0.737043	0.700121
	C1420	C	0.892006	0.773804	0.549487
	O1421	O	0.886460	0.770754	0.534404
	C1422	C	0.900269	0.782594	0.552845
	C1423	C	0.901965	0.787045	0.539375
	H1424	H	0.904874	0.785864	0.565557
	N1425	N	0.909352	0.795406	0.541048
	H1426	H	0.897261	0.783884	0.526501
	H1427	H	0.912635	0.798734	0.553312
	N1428	N	0.013834	0.895873	0.089359
	C1429	C	0.018673	0.885808	0.097164
	C1430	C	0.023755	0.881422	0.086943
	N1431	N	0.021734	0.888581	0.073384
	C1432	C	0.029629	0.871048	0.091131
	C1433	C	0.034670	0.865764	0.080471
	C1434	C	0.030240	0.865958	0.106086
	H1435	H	0.034897	0.858192	0.110337
	C1436	C	0.025456	0.870631	0.116276
	H1437	H	0.026553	0.866310	0.127906
	C1438	C	0.019624	0.880830	0.112389
	C1439	C	0.014393	0.885597	0.123041
	C1440	C	0.035678	0.854074	0.079781
	C1441	C	0.007687	0.878978	0.128459
	C1442	C	0.016041	0.896803	0.128383
	C1443	C	0.038626	0.872178	0.070553
	C1444	C	0.043189	0.867217	0.060409
	H1445	H	0.038151	0.881219	0.070845
	C1446	C	0.010967	0.901198	0.138222
	H1447	H	0.021578	0.902040	0.125100
	C1448	C	0.044091	0.855547	0.059602
	H1449	H	0.046332	0.872504	0.053258
	C1450	C	0.040316	0.849159	0.069726
	H1451	H	0.032624	0.848701	0.086949
	C1452	C	0.002631	0.883408	0.138297
	H1453	H	0.006309	0.870264	0.124650
	C1454	C	0.003998	0.894691	0.143263
	H1455	H	0.012363	0.909851	0.142383
	H1456	H	-0.002317	0.877961	0.142421
	H1457	H	0.041001	0.840119	0.069300
	C1458	C	0.015804	0.896983	0.075007
	H1459	H	0.009597	0.901410	0.093196
	C1460	C	0.012061	0.906833	0.063704
	C1461	C	0.018760	0.910946	0.055996
	C1462	C	0.015400	0.920338	0.045405
	H1463	H	0.026633	0.906696	0.058501
	C1464	C	0.001791	0.912255	0.060118
	C1465	C	0.005280	0.926028	0.042021
	H1466	H	0.020614	0.923520	0.039487
	C1467	C	-0.001493	0.921656	0.049490
	H1468	H	-0.003695	0.908957	0.065463
	H1469	H	-0.009583	0.925526	0.046553
	C1470	C	0.048924	0.849566	0.048645
	O1471	O	0.052056	0.839605	0.051307
	C1472	C	0.049648	0.855684	0.034652
	C1473	C	0.054104	0.851412	0.024055
	H1474	H	0.045786	0.863908	0.031355
	N1475	N	0.059130	0.841320	0.025317
	H1476	H	0.053680	0.856582	0.013444
	H1477	H	0.060824	0.837375	0.036897
	C1478	C	-0.001401	0.900001	0.154010
	O1479	O	0.001910	0.909149	0.161319
	C1480	C	-0.010638	0.894139	0.155443
	C1481	C	-0.015585	0.897269	0.166006
	H1482	H	-0.014512	0.887118	0.147068
	N1483	N	-0.012554	0.905792	0.177325
	H1484	H	-0.022686	0.892324	0.165520
	H1485	H	-0.005031	0.909514	0.178679
	C1486	C	0.002102	0.936353	0.030275
	O1487	O	0.006867	0.938422	0.020894
	C1488	C	-0.006540	0.943845	0.030423
	C1489	C	-0.011109	0.952776	0.019285
	H1490	H	-0.009202	0.942985	0.040590
	N1491	N	-0.009083	0.955678	0.005773
	H1492	H	-0.017205	0.958088	0.021162
	H1493	H	-0.002432	0.951121	0.005428
	C1494	C	0.014861	0.015342	0.527785
	C1495	C	0.004402	0.010971	0.525685
	C1496	C	-0.001103	0.002613	0.513622
	C1497	C	0.003997	-0.001619	0.503270
	C1498	C	0.014659	0.002764	0.505458
	C1499	C	0.019915	0.011084	0.517702
	H1500	H	0.000633	0.013857	0.533873
	H1501	H	0.028015	0.014452	0.519346
	C1502	C	-0.001443	-0.010125	0.491005
	C1503	C	-0.012090	-0.014530	0.488850
	C1504	C	-0.017313	-0.022929	0.476724
	C1505	C	-0.012271	-0.027158	0.466610
	C1506	C	-0.001870	-0.022698	0.468585
	C1507	C	0.003638	-0.014327	0.480610
	H1508	H	-0.025559	-0.025979	0.474832
	H1509	H	0.002015	-0.025953	0.460732
	C1510	C	0.019634	-0.001659	0.494859
	C1511	C	0.014398	-0.009747	0.483054
	H1512	H	0.027740	0.001647	0.496467
	H1513	H	0.018313	-0.012930	0.475214
	C1514	C	-0.011842	-0.002001	0.511226
	C1515	C	-0.017059	-0.010115	0.499463
	H1516	H	-0.015755	0.001173	0.519072
	H1517	H	-0.025149	-0.013438	0.497891
	C1518	C	0.913884	0.832108	0.459729
	C1519	C	0.910218	0.820930	0.457359
	C1520	C	0.909471	0.814689	0.470569
	C1521	C	0.912343	0.819795	0.486737
	C1522	C	0.915953	0.831187	0.489110
	C1523	C	0.916623	0.837141	0.475598
	H1524	H	0.908059	0.817018	0.445089
	H1525	H	0.919100	0.845881	0.477400
	C1526	C	0.911585	0.813625	0.500280
	C1527	C	0.908013	0.802223	0.497927
	C1528	C	0.907332	0.796269	0.511431
	C1529	C	0.910004	0.801311	0.527276
	C1530	C	0.913647	0.812499	0.529627
	C1531	C	0.914450	0.818727	0.516447
	H1532	H	0.904885	0.787524	0.509576
	H1533	H	0.915759	0.816427	0.541872
	C1534	C	0.918742	0.836160	0.505531
	C1535	C	0.918042	0.830250	0.518498
	H1536	H	0.921480	0.844825	0.507394
	H1537	H	0.920204	0.834195	0.530739
	C1538	C	0.905847	0.803177	0.468502
	C1539	C	0.905177	0.797261	0.481485
	H1540	H	0.903646	0.799242	0.456242
	H1541	H	0.902427	0.788599	0.479616
	C1542	C	-0.032860	0.911227	0.257958
	C1543	C	-0.022117	0.914853	0.260235
	C1544	C	-0.018733	0.914234	0.246971
	C1545	C	-0.026363	0.909960	0.230734
	C1546	C	-0.037369	0.906494	0.228290
	C1547	C	-0.040429	0.907237	0.241857
	H1548	H	-0.016384	0.918390	0.272387
	H1549	H	-0.048764	0.904488	0.240061
	C1550	C	-0.023036	0.909118	0.217191
	C1551	C	-0.012015	0.912538	0.219636
	C1552	C	-0.008851	0.911489	0.206196
	C1553	C	-0.016257	0.907022	0.190352
	C1554	C	-0.027187	0.903911	0.187851
	C1555	C	-0.030665	0.904815	0.200978
	H1556	H	-0.000445	0.914029	0.208069
	H1557	H	-0.033184	0.900980	0.175422
	C1558	C	-0.044972	0.902341	0.211719
	C1559	C	-0.041798	0.901558	0.198757
	H1560	H	-0.053387	0.899803	0.209768
	H1561	H	-0.047676	0.898390	0.186406
	C1562	C	-0.007722	0.917805	0.249012
	C1563	C	-0.004535	0.916993	0.236060
	H1564	H	-0.001922	0.921173	0.261266
	H1565	H	0.003816	0.919712	0.237941
	N1566	N	0.949950	0.895837	0.395094
	C1567	C	0.946172	0.887883	0.382228
	C1568	C	0.948869	0.892405	0.369258
	N1569	N	0.953904	0.902755	0.374269
	C1570	C	0.946161	0.886479	0.353858
	C1571	C	0.948516	0.890820	0.339590
	C1572	C	0.941000	0.876057	0.352874
	H1573	H	0.938952	0.871008	0.341592
	C1574	C	0.938800	0.871591	0.366131
	H1575	H	0.935141	0.863294	0.364629
	C1576	C	0.941529	0.877207	0.381519
	C1577	C	0.939307	0.872388	0.395575
	C1578	C	0.941295	0.888456	0.322442
	C1579	C	0.928882	0.867424	0.392441
	C1580	C	0.947598	0.872439	0.412571
	C1581	C	0.958075	0.897401	0.342575
	C1582	C	0.960442	0.901150	0.329220
	H1583	H	0.963733	0.899581	0.355591
	C1584	C	0.945492	0.867877	0.425721
	H1585	H	0.955884	0.875857	0.415436
	C1586	C	0.953395	0.898532	0.312135
	H1587	H	0.967761	0.906397	0.332012
	C1588	C	0.943680	0.892245	0.309147
	H1589	H	0.933635	0.883721	0.319441
	C1590	C	0.926828	0.862819	0.405629
	H1591	H	0.922239	0.867409	0.379490
	C1592	C	0.935103	0.862864	0.422633
	H1593	H	0.951983	0.867896	0.438801
	H1594	H	0.918570	0.859392	0.402780
	H1595	H	0.938034	0.890353	0.295968
	C1596	C	0.954284	0.904669	0.389415
	H1597	H	0.949529	0.895487	0.406435
	C1598	C	0.959419	0.914475	0.400146
	C1599	C	0.969062	0.919492	0.400071
	C1600	C	0.974063	0.928678	0.410420
	H1601	H	0.972572	0.916051	0.391854
	C1602	C	0.954787	0.919138	0.410515
	C1603	C	0.969716	0.933250	0.421236
	H1604	H	0.981547	0.932539	0.410386
	C1605	C	0.959856	0.928337	0.420811
	H1606	H	0.947086	0.915629	0.410242
	H1607	H	0.955956	0.931967	0.428347
	C1608	C	0.955668	0.902174	0.296973
	O1609	O	0.948036	0.902331	0.282090
	C1610	C	0.967173	0.905065	0.300176
	C1611	C	0.970471	0.908740	0.287856
	H1612	H	0.973901	0.903329	0.312745
	N1613	N	0.963726	0.911459	0.271371
	H1614	H	0.979459	0.909855	0.291553
	H1615	H	0.955253	0.909848	0.268191
	C1616	C	0.933385	0.857895	0.437631
	O1617	O	0.939704	0.860275	0.452772
	C1618	C	0.924280	0.850041	0.434242
	C1619	C	0.922463	0.845832	0.447732
	H1620	H	0.919305	0.847072	0.421428
	N1621	N	0.914518	0.838050	0.445978
	H1622	H	0.927569	0.848634	0.460710
	H1623	H	0.910975	0.834817	0.433646
	C1624	C	0.975642	0.943345	0.432404
	O1625	O	0.982650	0.949053	0.429668
	C1626	C	0.973005	0.946085	0.446527
	C1627	C	0.976618	0.955625	0.456450
	H1628	H	0.968447	0.939999	0.450480
	N1629	N	0.982528	0.964329	0.454368
	H1630	H	0.974393	0.956510	0.467088
	H1631	H	0.985552	0.962609	0.445346
